gem5 Simulator System.  http://gem5.org
gem5 is copyrighted software; use the --copyright option for details.

gem5 compiled Sep 28 2017 16:14:22
gem5 started Sep 28 2017 16:14:41
gem5 executing on eelty, pid 12745
command line: ./build/X86/gem5.opt configs/for_bus/L1-fpga-2mm.py

Global frequency set at 1000000000000 ticks per second
Beginning simulation!
info: Entering event queue @ 0.  Starting simulation...
occupy and configure FPGA with bitstream 1
FpgaCPU--configuring
Memory attached at 7FAAB2BC3000
./2mm/obj_dir/Vour is configured on FPGA.
Memory attached at 7FAAB2BC3000
Reset FPGA @ tick 122618500
Reset FPGA @ tick 122663000
W system.cpu.dcache recv 
reading successfully : 6299904 0
R system.fpga.dcache recv 
system.fpga.dcache recv1
system.fpga.dcache recv3
reading successfully : 6299908 0
reading successfully : 6299912 0
reading successfully : 6299916 0
reading successfully : 6299920 0
reading successfully : 6299924 0
reading successfully : 6299928 0
reading successfully : 6299932 0
reading successfully : 6299936 0
reading successfully : 6299940 0
reading successfully : 6299944 0
reading successfully : 6299948 0
reading successfully : 6299952 0
reading successfully : 6299956 0
reading successfully : 6299960 0
reading successfully : 6299964 0
reading successfully : 6299968 0
reading successfully : 6299972 0
reading successfully : 6299976 0
reading successfully : 6299980 0
reading successfully : 6299984 0
reading successfully : 6299988 0
reading successfully : 6299992 0
reading successfully : 6299996 0
reading successfully : 6300000 0
reading successfully : 6300004 0
reading successfully : 6300008 0
reading successfully : 6300012 0
reading successfully : 6300016 0
reading successfully : 6300020 0
reading successfully : 6300024 0
reading successfully : 6300028 0
reading successfully : 6300032 0
reading successfully : 6300036 0
reading successfully : 6300040 0
reading successfully : 6300044 0
reading successfully : 6300048 0
reading successfully : 6300052 0
reading successfully : 6300056 0
reading successfully : 6300060 0
reading successfully : 6300064 0
reading successfully : 6300068 0
reading successfully : 6300072 0
reading successfully : 6300076 0
reading successfully : 6300080 0
reading successfully : 6300084 0
reading successfully : 6300088 0
reading successfully : 6300092 0
reading successfully : 6300096 0
reading successfully : 6300100 0
reading successfully : 6300104 0
reading successfully : 6300108 0
reading successfully : 6300112 0
reading successfully : 6300116 0
reading successfully : 6300120 0
reading successfully : 6300124 0
reading successfully : 6300128 0
reading successfully : 6300132 0
reading successfully : 6300136 0
reading successfully : 6300140 0
reading successfully : 6300144 0
reading successfully : 6300148 0
reading successfully : 6300152 0
reading successfully : 6300156 0
reading successfully : 6300160 0
reading successfully : 6300164 0
reading successfully : 6300168 0
reading successfully : 6300172 0
reading successfully : 6300176 0
reading successfully : 6300180 0
reading successfully : 6300184 0
reading successfully : 6300188 0
reading successfully : 6300192 0
reading successfully : 6300196 0
reading successfully : 6300200 0
reading successfully : 6300204 0
reading successfully : 6300208 0
reading successfully : 6300212 0
reading successfully : 6300216 0
reading successfully : 6300220 0
reading successfully : 6300224 0
reading successfully : 6300228 0
reading successfully : 6300232 0
reading successfully : 6300236 0
reading successfully : 6300240 0
reading successfully : 6300244 0
reading successfully : 6300248 0
reading successfully : 6300252 0
reading successfully : 6300256 0
reading successfully : 6300260 0
reading successfully : 6300264 0
reading successfully : 6300268 0
reading successfully : 6300272 0
reading successfully : 6300276 0
reading successfully : 6300280 0
reading successfully : 6300284 0
reading successfully : 6300288 0
reading successfully : 6300292 0
reading successfully : 6300296 0
reading successfully : 6300300 0
reading successfully : 6300304 0
reading successfully : 6300308 0
reading successfully : 6300312 0
reading successfully : 6300316 0
reading successfully : 6300320 0
reading successfully : 6300324 0
reading successfully : 6300328 0
reading successfully : 6300332 0
reading successfully : 6300336 0
reading successfully : 6300340 0
reading successfully : 6300344 0
reading successfully : 6300348 0
reading successfully : 6300352 0
reading successfully : 6300356 0
reading successfully : 6300360 0
reading successfully : 6300364 0
reading successfully : 6300368 0
reading successfully : 6300372 0
reading successfully : 6300376 0
reading successfully : 6300380 0
reading successfully : 6300384 0
reading successfully : 6300388 0
reading successfully : 6300392 0
reading successfully : 6300396 0
reading successfully : 6300400 0
reading successfully : 6300404 0
reading successfully : 6300408 0
reading successfully : 6300412 0
reading successfully : 6300416 0
reading successfully : 6300420 0
reading successfully : 6300424 0
reading successfully : 6300428 0
reading successfully : 6300432 0
reading successfully : 6300436 0
reading successfully : 6300440 0
reading successfully : 6300444 0
reading successfully : 6300448 0
reading successfully : 6300452 0
reading successfully : 6300456 0
reading successfully : 6300460 0
reading successfully : 6300464 0
reading successfully : 6300468 0
reading successfully : 6300472 0
reading successfully : 6300476 0
reading successfully : 6300480 0
reading successfully : 6300484 0
reading successfully : 6300488 0
reading successfully : 6300492 0
reading successfully : 6300496 0
reading successfully : 6300500 0
reading successfully : 6300504 0
reading successfully : 6300508 0
reading successfully : 6300512 0
reading successfully : 6300516 0
reading successfully : 6300520 0
reading successfully : 6300524 0
reading successfully : 6300528 0
reading successfully : 6300532 0
reading successfully : 6300536 0
reading successfully : 6300540 0
reading successfully : 6300544 0
reading successfully : 6300548 0
reading successfully : 6300552 0
reading successfully : 6300556 0
reading successfully : 6300560 0
reading successfully : 6300564 0
reading successfully : 6300568 0
reading successfully : 6300572 0
reading successfully : 6300576 0
reading successfully : 6300580 0
reading successfully : 6300584 0
reading successfully : 6300588 0
reading successfully : 6300592 0
reading successfully : 6300596 0
reading successfully : 6300600 0
reading successfully : 6300604 0
reading successfully : 6300608 0
reading successfully : 6300612 0
reading successfully : 6300616 0
reading successfully : 6300620 0
reading successfully : 6300624 0
reading successfully : 6300628 0
reading successfully : 6300632 0
reading successfully : 6300636 0
reading successfully : 6300640 0
reading successfully : 6300644 0
reading successfully : 6300648 0
reading successfully : 6300652 0
reading successfully : 6300656 0
reading successfully : 6300660 0
reading successfully : 6300664 0
reading successfully : 6300668 0
reading successfully : 6300672 0
reading successfully : 6300676 0
reading successfully : 6300680 0
reading successfully : 6300684 0
reading successfully : 6300688 0
reading successfully : 6300692 0
reading successfully : 6300696 0
reading successfully : 6300700 0
reading successfully : 6300704 0
reading successfully : 6300708 0
reading successfully : 6300712 0
reading successfully : 6300716 0
reading successfully : 6300720 0
reading successfully : 6300724 0
reading successfully : 6300728 0
reading successfully : 6300732 0
reading successfully : 6300736 0
reading successfully : 6300740 0
reading successfully : 6300744 0
reading successfully : 6300748 0
reading successfully : 6300752 0
reading successfully : 6300756 0
reading successfully : 6300760 0
reading successfully : 6300764 0
reading successfully : 6300768 0
reading successfully : 6300772 0
reading successfully : 6300776 0
reading successfully : 6300780 0
reading successfully : 6300784 0
reading successfully : 6300788 0
reading successfully : 6300792 0
reading successfully : 6300796 0
reading successfully : 6300800 0
reading successfully : 6300804 0
reading successfully : 6300808 0
reading successfully : 6300812 0
reading successfully : 6300816 0
reading successfully : 6300820 0
reading successfully : 6300824 0
reading successfully : 6300828 0
reading successfully : 6300832 0
reading successfully : 6300836 0
reading successfully : 6300840 0
reading successfully : 6300844 0
reading successfully : 6300848 0
reading successfully : 6300852 0
reading successfully : 6300856 0
reading successfully : 6300860 0
reading successfully : 6300864 0
reading successfully : 6300868 0
reading successfully : 6300872 0
reading successfully : 6300876 0
reading successfully : 6300880 0
reading successfully : 6300884 0
reading successfully : 6300888 0
reading successfully : 6300892 0
reading successfully : 6300896 0
reading successfully : 6300900 0
reading successfully : 6300904 0
reading successfully : 6300908 0
reading successfully : 6300912 0
reading successfully : 6300916 0
reading successfully : 6300920 0
reading successfully : 6300924 0
reading successfully : 6300928 0
reading successfully : 6300932 0
reading successfully : 6300936 0
reading successfully : 6300940 0
reading successfully : 6300944 0
reading successfully : 6300948 0
reading successfully : 6300952 0
reading successfully : 6300956 0
reading successfully : 6300960 0
reading successfully : 6300964 0
reading successfully : 6300968 0
reading successfully : 6300972 0
reading successfully : 6300976 0
reading successfully : 6300980 0
reading successfully : 6300984 0
reading successfully : 6300988 0
reading successfully : 6300992 0
reading successfully : 6300996 0
reading successfully : 6301000 0
reading successfully : 6301004 0
reading successfully : 6301008 0
reading successfully : 6301012 0
reading successfully : 6301016 0
reading successfully : 6301020 0
reading successfully : 6301024 0
reading successfully : 6301028 0
reading successfully : 6301032 0
reading successfully : 6301036 0
reading successfully : 6301040 0
reading successfully : 6301044 0
reading successfully : 6301048 0
reading successfully : 6301052 0
reading successfully : 6301056 0
reading successfully : 6301060 0
reading successfully : 6301064 0
reading successfully : 6301068 0
reading successfully : 6301072 0
reading successfully : 6301076 0
reading successfully : 6301080 0
reading successfully : 6301084 0
reading successfully : 6301088 0
reading successfully : 6301092 0
reading successfully : 6301096 0
reading successfully : 6301100 0
reading successfully : 6301104 0
reading successfully : 6301108 0
reading successfully : 6301112 0
reading successfully : 6301116 0
reading successfully : 6301120 0
reading successfully : 6301124 0
reading successfully : 6301128 0
reading successfully : 6301132 0
reading successfully : 6301136 0
reading successfully : 6301140 0
reading successfully : 6301144 0
reading successfully : 6301148 0
reading successfully : 6301152 0
reading successfully : 6301156 0
reading successfully : 6301160 0
reading successfully : 6301164 0
reading successfully : 6301168 0
reading successfully : 6301172 0
reading successfully : 6301176 0
reading successfully : 6301180 0
reading successfully : 6301184 0
reading successfully : 6301188 0
reading successfully : 6301192 0
reading successfully : 6301196 0
reading successfully : 6301200 0
reading successfully : 6301204 0
reading successfully : 6301208 0
reading successfully : 6301212 0
reading successfully : 6301216 0
reading successfully : 6301220 0
reading successfully : 6301224 0
reading successfully : 6301228 0
reading successfully : 6301232 0
reading successfully : 6301236 0
reading successfully : 6301240 0
reading successfully : 6301244 0
reading successfully : 6301248 0
reading successfully : 6301252 0
reading successfully : 6301256 0
reading successfully : 6301260 0
reading successfully : 6301264 0
reading successfully : 6301268 0
reading successfully : 6301272 0
reading successfully : 6301276 0
reading successfully : 6301280 0
reading successfully : 6301284 0
reading successfully : 6301288 0
reading successfully : 6301292 0
reading successfully : 6301296 0
reading successfully : 6301300 0
reading successfully : 6301304 0
reading successfully : 6301308 0
reading successfully : 6301312 0
reading successfully : 6301316 0
reading successfully : 6301320 0
reading successfully : 6301324 0
reading successfully : 6301328 0
reading successfully : 6301332 0
reading successfully : 6301336 0
reading successfully : 6301340 0
reading successfully : 6301344 0
reading successfully : 6301348 0
reading successfully : 6301352 0
reading successfully : 6301356 0
reading successfully : 6301360 0
reading successfully : 6301364 0
reading successfully : 6301368 0
reading successfully : 6301372 0
reading successfully : 6301376 0
reading successfully : 6301380 0
reading successfully : 6301384 0
reading successfully : 6301388 0
reading successfully : 6301392 0
reading successfully : 6301396 0
reading successfully : 6301400 0
reading successfully : 6301404 0
reading successfully : 6301408 0
reading successfully : 6301412 0
reading successfully : 6301416 0
reading successfully : 6301420 0
reading successfully : 6301424 0
reading successfully : 6301428 0
reading successfully : 6301432 0
reading successfully : 6301436 0
reading successfully : 6301440 0
reading successfully : 6301444 0
reading successfully : 6301448 0
reading successfully : 6301452 0
reading successfully : 6301456 0
reading successfully : 6301460 0
reading successfully : 6301464 0
reading successfully : 6301468 0
reading successfully : 6301472 0
reading successfully : 6301476 0
reading successfully : 6301480 0
reading successfully : 6301484 0
reading successfully : 6301488 0
reading successfully : 6301492 0
reading successfully : 6301496 0
reading successfully : 6301500 0
reading successfully : 6301504 0
reading successfully : 6301508 0
reading successfully : 6301512 0
reading successfully : 6301516 0
reading successfully : 6301520 0
reading successfully : 6301524 0
reading successfully : 6301528 0
reading successfully : 6301532 0
reading successfully : 6301536 0
reading successfully : 6301540 0
reading successfully : 6301544 0
reading successfully : 6301548 0
reading successfully : 6301552 0
reading successfully : 6301556 0
reading successfully : 6301560 0
reading successfully : 6301564 0
reading successfully : 6301568 0
reading successfully : 6301572 0
reading successfully : 6301576 0
reading successfully : 6301580 0
reading successfully : 6301584 0
reading successfully : 6301588 0
reading successfully : 6301592 0
reading successfully : 6301596 0
reading successfully : 6301600 0
reading successfully : 6301604 0
reading successfully : 6301608 0
reading successfully : 6301612 0
reading successfully : 6301616 0
reading successfully : 6301620 0
reading successfully : 6301624 0
reading successfully : 6301628 0
reading successfully : 6301632 0
reading successfully : 6301636 0
reading successfully : 6301640 0
reading successfully : 6301644 0
reading successfully : 6301648 0
reading successfully : 6301652 0
reading successfully : 6301656 0
reading successfully : 6301660 0
reading successfully : 6301664 0
reading successfully : 6301668 0
reading successfully : 6301672 0
reading successfully : 6301676 0
reading successfully : 6301680 0
reading successfully : 6301684 0
reading successfully : 6301688 0
reading successfully : 6301692 0
reading successfully : 6301696 0
reading successfully : 6301700 0
reading successfully : 6301704 0
reading successfully : 6301708 0
reading successfully : 6301712 0
reading successfully : 6301716 0
reading successfully : 6301720 0
reading successfully : 6301724 0
reading successfully : 6301728 0
reading successfully : 6301732 0
reading successfully : 6301736 0
reading successfully : 6301740 0
reading successfully : 6301744 0
reading successfully : 6301748 0
reading successfully : 6301752 0
reading successfully : 6301756 0
reading successfully : 6301760 0
reading successfully : 6301764 0
reading successfully : 6301768 0
reading successfully : 6301772 0
reading successfully : 6301776 0
reading successfully : 6301780 0
reading successfully : 6301784 0
reading successfully : 6301788 0
reading successfully : 6301792 0
reading successfully : 6301796 0
reading successfully : 6301800 0
reading successfully : 6301804 0
reading successfully : 6301808 0
reading successfully : 6301812 0
reading successfully : 6301816 0
reading successfully : 6301820 0
reading successfully : 6301824 0
reading successfully : 6301828 0
reading successfully : 6301832 0
reading successfully : 6301836 0
reading successfully : 6301840 0
reading successfully : 6301844 0
reading successfully : 6301848 0
reading successfully : 6301852 0
reading successfully : 6301856 0
reading successfully : 6301860 0
reading successfully : 6301864 0
reading successfully : 6301868 0
reading successfully : 6301872 0
reading successfully : 6301876 0
reading successfully : 6301880 0
reading successfully : 6301884 0
reading successfully : 6301888 0
reading successfully : 6301892 0
reading successfully : 6301896 0
reading successfully : 6301900 0
reading successfully : 6301904 0
reading successfully : 6301908 0
reading successfully : 6301912 0
reading successfully : 6301916 0
reading successfully : 6301920 0
reading successfully : 6301924 0
reading successfully : 6301928 0
reading successfully : 6301932 0
reading successfully : 6301936 0
reading successfully : 6301940 0
reading successfully : 6301944 0
reading successfully : 6301948 0
reading successfully : 6301952 0
reading successfully : 6301956 0
reading successfully : 6301960 0
reading successfully : 6301964 0
reading successfully : 6301968 0
reading successfully : 6301972 0
reading successfully : 6301976 0
reading successfully : 6301980 0
reading successfully : 6301984 0
reading successfully : 6301988 0
reading successfully : 6301992 0
reading successfully : 6301996 0
reading successfully : 6302000 0
reading successfully : 6302004 0
reading successfully : 6302008 0
reading successfully : 6302012 0
reading successfully : 6302016 0
reading successfully : 6302020 0
reading successfully : 6302024 0
reading successfully : 6302028 0
reading successfully : 6302032 0
reading successfully : 6302036 0
reading successfully : 6302040 0
reading successfully : 6302044 0
reading successfully : 6302048 0
reading successfully : 6302052 0
reading successfully : 6302056 0
reading successfully : 6302060 0
reading successfully : 6302064 0
reading successfully : 6302068 0
reading successfully : 6302072 0
reading successfully : 6302076 0
reading successfully : 6302080 0
reading successfully : 6302084 0
reading successfully : 6302088 0
reading successfully : 6302092 0
reading successfully : 6302096 0
reading successfully : 6302100 0
reading successfully : 6302104 0
reading successfully : 6302108 0
reading successfully : 6302112 0
reading successfully : 6302116 0
reading successfully : 6302120 0
reading successfully : 6302124 0
reading successfully : 6302128 0
reading successfully : 6302132 0
reading successfully : 6302136 0
reading successfully : 6302140 0
reading successfully : 6302144 0
reading successfully : 6302148 0
reading successfully : 6302152 0
reading successfully : 6302156 0
reading successfully : 6302160 0
reading successfully : 6302164 0
reading successfully : 6302168 0
reading successfully : 6302172 0
reading successfully : 6302176 0
reading successfully : 6302180 0
reading successfully : 6302184 0
reading successfully : 6302188 0
reading successfully : 6302192 0
reading successfully : 6302196 0
reading successfully : 6302200 0
reading successfully : 6302204 0
reading successfully : 6302208 0
reading successfully : 6302212 0
reading successfully : 6302216 0
reading successfully : 6302220 0
reading successfully : 6302224 0
reading successfully : 6302228 0
reading successfully : 6302232 0
reading successfully : 6302236 0
reading successfully : 6302240 0
reading successfully : 6302244 0
reading successfully : 6302248 0
reading successfully : 6302252 0
reading successfully : 6302256 0
reading successfully : 6302260 0
reading successfully : 6302264 0
reading successfully : 6302268 0
reading successfully : 6302272 0
reading successfully : 6302276 0
reading successfully : 6302280 0
reading successfully : 6302284 0
reading successfully : 6302288 0
reading successfully : 6302292 0
reading successfully : 6302296 0
reading successfully : 6302300 0
reading successfully : 6302304 1
reading successfully : 6302308 1
reading successfully : 6302312 1
reading successfully : 6302316 1
reading successfully : 6302320 1
reading successfully : 6302324 1
reading successfully : 6302328 1
reading successfully : 6302332 1
reading successfully : 6302336 1
reading successfully : 6302340 1
reading successfully : 6302344 1
reading successfully : 6302348 1
reading successfully : 6302352 1
reading successfully : 6302356 1
reading successfully : 6302360 1
reading successfully : 6302364 1
reading successfully : 6302368 1
reading successfully : 6302372 1
reading successfully : 6302376 1
reading successfully : 6302380 1
reading successfully : 6302384 1
reading successfully : 6302388 1
reading successfully : 6302392 1
reading successfully : 6302396 1
reading successfully : 6302400 1
reading successfully : 6302404 1
reading successfully : 6302408 1
reading successfully : 6302412 1
reading successfully : 6302416 1
reading successfully : 6302420 1
reading successfully : 6302424 1
reading successfully : 6302428 1
reading successfully : 6302432 1
reading successfully : 6302436 1
reading successfully : 6302440 1
reading successfully : 6302444 1
reading successfully : 6302448 1
reading successfully : 6302452 1
reading successfully : 6302456 1
reading successfully : 6302460 1
reading successfully : 6302464 1
reading successfully : 6302468 2
reading successfully : 6302472 3
reading successfully : 6302476 4
reading successfully : 6302480 5
reading successfully : 6302484 6
reading successfully : 6302488 7
reading successfully : 6302492 8
reading successfully : 6302496 9
reading successfully : 6302500 10
reading successfully : 6302504 11
reading successfully : 6302508 12
reading successfully : 6302512 13
reading successfully : 6302516 14
reading successfully : 6302520 15
reading successfully : 6302524 16
reading successfully : 6302528 17
reading successfully : 6302532 18
reading successfully : 6302536 19
reading successfully : 6302540 0
reading successfully : 6302544 1
reading successfully : 6302548 2
reading successfully : 6302552 3
reading successfully : 6302556 4
reading successfully : 6302560 5
reading successfully : 6302564 6
reading successfully : 6302568 7
reading successfully : 6302572 8
reading successfully : 6302576 9
reading successfully : 6302580 10
reading successfully : 6302584 11
reading successfully : 6302588 12
reading successfully : 6302592 13
reading successfully : 6302596 14
reading successfully : 6302600 15
reading successfully : 6302604 16
reading successfully : 6302608 17
reading successfully : 6302612 18
reading successfully : 6302616 19
reading successfully : 6302620 0
reading successfully : 6302624 1
reading successfully : 6302628 3
reading successfully : 6302632 5
reading successfully : 6302636 7
reading successfully : 6302640 9
reading successfully : 6302644 11
reading successfully : 6302648 13
reading successfully : 6302652 15
reading successfully : 6302656 17
reading successfully : 6302660 19
reading successfully : 6302664 1
reading successfully : 6302668 3
reading successfully : 6302672 5
reading successfully : 6302676 7
reading successfully : 6302680 9
reading successfully : 6302684 11
reading successfully : 6302688 13
reading successfully : 6302692 15
reading successfully : 6302696 17
reading successfully : 6302700 19
reading successfully : 6302704 1
reading successfully : 6302708 3
reading successfully : 6302712 5
reading successfully : 6302716 7
reading successfully : 6302720 9
reading successfully : 6302724 11
reading successfully : 6302728 13
reading successfully : 6302732 15
reading successfully : 6302736 17
reading successfully : 6302740 19
reading successfully : 6302744 1
reading successfully : 6302748 3
reading successfully : 6302752 5
reading successfully : 6302756 7
reading successfully : 6302760 9
reading successfully : 6302764 11
reading successfully : 6302768 13
reading successfully : 6302772 15
reading successfully : 6302776 17
reading successfully : 6302780 19
reading successfully : 6302784 1
reading successfully : 6302788 4
reading successfully : 6302792 7
reading successfully : 6302796 10
reading successfully : 6302800 13
reading successfully : 6302804 16
reading successfully : 6302808 19
reading successfully : 6302812 2
reading successfully : 6302816 5
reading successfully : 6302820 8
reading successfully : 6302824 11
reading successfully : 6302828 14
reading successfully : 6302832 17
reading successfully : 6302836 0
reading successfully : 6302840 3
reading successfully : 6302844 6
reading successfully : 6302848 9
reading successfully : 6302852 12
reading successfully : 6302856 15
reading successfully : 6302860 18
reading successfully : 6302864 1
reading successfully : 6302868 4
reading successfully : 6302872 7
reading successfully : 6302876 10
reading successfully : 6302880 13
reading successfully : 6302884 16
reading successfully : 6302888 19
reading successfully : 6302892 2
reading successfully : 6302896 5
reading successfully : 6302900 8
reading successfully : 6302904 11
reading successfully : 6302908 14
reading successfully : 6302912 17
reading successfully : 6302916 0
reading successfully : 6302920 3
reading successfully : 6302924 6
reading successfully : 6302928 9
reading successfully : 6302932 12
reading successfully : 6302936 15
reading successfully : 6302940 18
reading successfully : 6302944 1
reading successfully : 6302948 5
reading successfully : 6302952 9
reading successfully : 6302956 13
reading successfully : 6302960 17
reading successfully : 6302964 1
reading successfully : 6302968 5
reading successfully : 6302972 9
reading successfully : 6302976 13
reading successfully : 6302980 17
reading successfully : 6302984 1
reading successfully : 6302988 5
reading successfully : 6302992 9
reading successfully : 6302996 13
reading successfully : 6303000 17
reading successfully : 6303004 1
reading successfully : 6303008 5
reading successfully : 6303012 9
reading successfully : 6303016 13
reading successfully : 6303020 17
reading successfully : 6303024 1
reading successfully : 6303028 5
reading successfully : 6303032 9
reading successfully : 6303036 13
reading successfully : 6303040 17
reading successfully : 6303044 1
reading successfully : 6303048 5
reading successfully : 6303052 9
reading successfully : 6303056 13
reading successfully : 6303060 17
reading successfully : 6303064 1
reading successfully : 6303068 5
reading successfully : 6303072 9
reading successfully : 6303076 13
reading successfully : 6303080 17
reading successfully : 6303084 1
reading successfully : 6303088 5
reading successfully : 6303092 9
reading successfully : 6303096 13
reading successfully : 6303100 17
reading successfully : 6303104 1
reading successfully : 6303108 6
reading successfully : 6303112 11
reading successfully : 6303116 16
reading successfully : 6303120 1
reading successfully : 6303124 6
reading successfully : 6303128 11
reading successfully : 6303132 16
reading successfully : 6303136 1
reading successfully : 6303140 6
reading successfully : 6303144 11
reading successfully : 6303148 16
reading successfully : 6303152 1
reading successfully : 6303156 6
reading successfully : 6303160 11
reading successfully : 6303164 16
reading successfully : 6303168 1
reading successfully : 6303172 6
reading successfully : 6303176 11
reading successfully : 6303180 16
reading successfully : 6303184 1
reading successfully : 6303188 6
reading successfully : 6303192 11
reading successfully : 6303196 16
reading successfully : 6303200 1
reading successfully : 6303204 6
reading successfully : 6303208 11
reading successfully : 6303212 16
reading successfully : 6303216 1
reading successfully : 6303220 6
reading successfully : 6303224 11
reading successfully : 6303228 16
reading successfully : 6303232 1
reading successfully : 6303236 6
reading successfully : 6303240 11
reading successfully : 6303244 16
reading successfully : 6303248 1
reading successfully : 6303252 6
reading successfully : 6303256 11
reading successfully : 6303260 16
reading successfully : 6303264 1
reading successfully : 6303268 7
reading successfully : 6303272 13
reading successfully : 6303276 19
reading successfully : 6303280 5
reading successfully : 6303284 11
reading successfully : 6303288 17
reading successfully : 6303292 3
reading successfully : 6303296 9
reading successfully : 6303300 15
reading successfully : 6303304 1
reading successfully : 6303308 7
reading successfully : 6303312 13
reading successfully : 6303316 19
reading successfully : 6303320 5
reading successfully : 6303324 11
reading successfully : 6303328 17
reading successfully : 6303332 3
reading successfully : 6303336 9
reading successfully : 6303340 15
reading successfully : 6303344 1
reading successfully : 6303348 7
reading successfully : 6303352 13
reading successfully : 6303356 19
reading successfully : 6303360 5
reading successfully : 6303364 11
reading successfully : 6303368 17
reading successfully : 6303372 3
reading successfully : 6303376 9
reading successfully : 6303380 15
reading successfully : 6303384 1
reading successfully : 6303388 7
reading successfully : 6303392 13
reading successfully : 6303396 19
reading successfully : 6303400 5
reading successfully : 6303404 11
reading successfully : 6303408 17
reading successfully : 6303412 3
reading successfully : 6303416 9
reading successfully : 6303420 15
reading successfully : 6303424 1
reading successfully : 6303428 8
reading successfully : 6303432 15
reading successfully : 6303436 2
reading successfully : 6303440 9
reading successfully : 6303444 16
reading successfully : 6303448 3
reading successfully : 6303452 10
reading successfully : 6303456 17
reading successfully : 6303460 4
reading successfully : 6303464 11
reading successfully : 6303468 18
reading successfully : 6303472 5
reading successfully : 6303476 12
reading successfully : 6303480 19
reading successfully : 6303484 6
reading successfully : 6303488 13
reading successfully : 6303492 0
reading successfully : 6303496 7
reading successfully : 6303500 14
reading successfully : 6303504 1
reading successfully : 6303508 8
reading successfully : 6303512 15
reading successfully : 6303516 2
reading successfully : 6303520 9
reading successfully : 6303524 16
reading successfully : 6303528 3
reading successfully : 6303532 10
reading successfully : 6303536 17
reading successfully : 6303540 4
reading successfully : 6303544 11
reading successfully : 6303548 18
reading successfully : 6303552 5
reading successfully : 6303556 12
reading successfully : 6303560 19
reading successfully : 6303564 6
reading successfully : 6303568 13
reading successfully : 6303572 0
reading successfully : 6303576 7
reading successfully : 6303580 14
reading successfully : 6303584 1
reading successfully : 6303588 9
reading successfully : 6303592 17
reading successfully : 6303596 5
reading successfully : 6303600 13
reading successfully : 6303604 1
reading successfully : 6303608 9
reading successfully : 6303612 17
reading successfully : 6303616 5
reading successfully : 6303620 13
reading successfully : 6303624 1
reading successfully : 6303628 9
reading successfully : 6303632 17
reading successfully : 6303636 5
reading successfully : 6303640 13
reading successfully : 6303644 1
reading successfully : 6303648 9
reading successfully : 6303652 17
reading successfully : 6303656 5
reading successfully : 6303660 13
reading successfully : 6303664 1
reading successfully : 6303668 9
reading successfully : 6303672 17
reading successfully : 6303676 5
reading successfully : 6303680 13
reading successfully : 6303684 1
reading successfully : 6303688 9
reading successfully : 6303692 17
reading successfully : 6303696 5
reading successfully : 6303700 13
reading successfully : 6303704 1
reading successfully : 6303708 9
reading successfully : 6303712 17
reading successfully : 6303716 5
reading successfully : 6303720 13
reading successfully : 6303724 1
reading successfully : 6303728 9
reading successfully : 6303732 17
reading successfully : 6303736 5
reading successfully : 6303740 13
reading successfully : 6303744 1
reading successfully : 6303748 10
reading successfully : 6303752 19
reading successfully : 6303756 8
reading successfully : 6303760 17
reading successfully : 6303764 6
reading successfully : 6303768 15
reading successfully : 6303772 4
reading successfully : 6303776 13
reading successfully : 6303780 2
reading successfully : 6303784 11
reading successfully : 6303788 0
reading successfully : 6303792 9
reading successfully : 6303796 18
reading successfully : 6303800 7
reading successfully : 6303804 16
reading successfully : 6303808 5
reading successfully : 6303812 14
reading successfully : 6303816 3
reading successfully : 6303820 12
reading successfully : 6303824 1
reading successfully : 6303828 10
reading successfully : 6303832 19
reading successfully : 6303836 8
reading successfully : 6303840 17
reading successfully : 6303844 6
reading successfully : 6303848 15
reading successfully : 6303852 4
reading successfully : 6303856 13
reading successfully : 6303860 2
reading successfully : 6303864 11
reading successfully : 6303868 0
reading successfully : 6303872 9
reading successfully : 6303876 18
reading successfully : 6303880 7
reading successfully : 6303884 16
reading successfully : 6303888 5
reading successfully : 6303892 14
reading successfully : 6303896 3
reading successfully : 6303900 12
reading successfully : 6303904 1
reading successfully : 6303908 11
reading successfully : 6303912 1
reading successfully : 6303916 11
reading successfully : 6303920 1
reading successfully : 6303924 11
reading successfully : 6303928 1
reading successfully : 6303932 11
reading successfully : 6303936 1
reading successfully : 6303940 11
reading successfully : 6303944 1
reading successfully : 6303948 11
reading successfully : 6303952 1
reading successfully : 6303956 11
reading successfully : 6303960 1
reading successfully : 6303964 11
reading successfully : 6303968 1
reading successfully : 6303972 11
reading successfully : 6303976 1
reading successfully : 6303980 11
reading successfully : 6303984 1
reading successfully : 6303988 11
reading successfully : 6303992 1
reading successfully : 6303996 11
reading successfully : 6304000 1
reading successfully : 6304004 11
reading successfully : 6304008 1
reading successfully : 6304012 11
reading successfully : 6304016 1
reading successfully : 6304020 11
reading successfully : 6304024 1
reading successfully : 6304028 11
reading successfully : 6304032 1
reading successfully : 6304036 11
reading successfully : 6304040 1
reading successfully : 6304044 11
reading successfully : 6304048 1
reading successfully : 6304052 11
reading successfully : 6304056 1
reading successfully : 6304060 11
reading successfully : 6304064 1
reading successfully : 6304068 12
reading successfully : 6304072 3
reading successfully : 6304076 14
reading successfully : 6304080 5
reading successfully : 6304084 16
reading successfully : 6304088 7
reading successfully : 6304092 18
reading successfully : 6304096 9
reading successfully : 6304100 0
reading successfully : 6304104 11
reading successfully : 6304108 2
reading successfully : 6304112 13
reading successfully : 6304116 4
reading successfully : 6304120 15
reading successfully : 6304124 6
reading successfully : 6304128 17
reading successfully : 6304132 8
reading successfully : 6304136 19
reading successfully : 6304140 10
reading successfully : 6304144 1
reading successfully : 6304148 12
reading successfully : 6304152 3
reading successfully : 6304156 14
reading successfully : 6304160 5
reading successfully : 6304164 16
reading successfully : 6304168 7
reading successfully : 6304172 18
reading successfully : 6304176 9
reading successfully : 6304180 0
reading successfully : 6304184 11
reading successfully : 6304188 2
reading successfully : 6304192 13
reading successfully : 6304196 4
reading successfully : 6304200 15
reading successfully : 6304204 6
reading successfully : 6304208 17
reading successfully : 6304212 8
reading successfully : 6304216 19
reading successfully : 6304220 10
reading successfully : 6304224 1
reading successfully : 6304228 13
reading successfully : 6304232 5
reading successfully : 6304236 17
reading successfully : 6304240 9
reading successfully : 6304244 1
reading successfully : 6304248 13
reading successfully : 6304252 5
reading successfully : 6304256 17
reading successfully : 6304260 9
reading successfully : 6304264 1
reading successfully : 6304268 13
reading successfully : 6304272 5
reading successfully : 6304276 17
reading successfully : 6304280 9
reading successfully : 6304284 1
reading successfully : 6304288 13
reading successfully : 6304292 5
reading successfully : 6304296 17
reading successfully : 6304300 9
reading successfully : 6304304 1
reading successfully : 6304308 13
reading successfully : 6304312 5
reading successfully : 6304316 17
reading successfully : 6304320 9
reading successfully : 6304324 1
reading successfully : 6304328 13
reading successfully : 6304332 5
reading successfully : 6304336 17
reading successfully : 6304340 9
reading successfully : 6304344 1
reading successfully : 6304348 13
reading successfully : 6304352 5
reading successfully : 6304356 17
reading successfully : 6304360 9
reading successfully : 6304364 1
reading successfully : 6304368 13
reading successfully : 6304372 5
reading successfully : 6304376 17
reading successfully : 6304380 9
reading successfully : 6304384 1
reading successfully : 6304388 14
reading successfully : 6304392 7
reading successfully : 6304396 0
reading successfully : 6304400 13
reading successfully : 6304404 6
reading successfully : 6304408 19
reading successfully : 6304412 12
reading successfully : 6304416 5
reading successfully : 6304420 18
reading successfully : 6304424 11
reading successfully : 6304428 4
reading successfully : 6304432 17
reading successfully : 6304436 10
reading successfully : 6304440 3
reading successfully : 6304444 16
reading successfully : 6304448 9
reading successfully : 6304452 2
reading successfully : 6304456 15
reading successfully : 6304460 8
reading successfully : 6304464 1
reading successfully : 6304468 14
reading successfully : 6304472 7
reading successfully : 6304476 0
reading successfully : 6304480 13
reading successfully : 6304484 6
reading successfully : 6304488 19
reading successfully : 6304492 12
reading successfully : 6304496 5
reading successfully : 6304500 18
reading successfully : 6304504 11
reading successfully : 6304508 4
reading successfully : 6304512 17
reading successfully : 6304516 10
reading successfully : 6304520 3
reading successfully : 6304524 16
reading successfully : 6304528 9
reading successfully : 6304532 2
reading successfully : 6304536 15
reading successfully : 6304540 8
reading successfully : 6304544 1
reading successfully : 6304548 15
reading successfully : 6304552 9
reading successfully : 6304556 3
reading successfully : 6304560 17
reading successfully : 6304564 11
reading successfully : 6304568 5
reading successfully : 6304572 19
reading successfully : 6304576 13
reading successfully : 6304580 7
reading successfully : 6304584 1
reading successfully : 6304588 15
reading successfully : 6304592 9
reading successfully : 6304596 3
reading successfully : 6304600 17
reading successfully : 6304604 11
reading successfully : 6304608 5
reading successfully : 6304612 19
reading successfully : 6304616 13
reading successfully : 6304620 7
reading successfully : 6304624 1
reading successfully : 6304628 15
reading successfully : 6304632 9
reading successfully : 6304636 3
reading successfully : 6304640 17
reading successfully : 6304644 11
reading successfully : 6304648 5
reading successfully : 6304652 19
reading successfully : 6304656 13
reading successfully : 6304660 7
reading successfully : 6304664 1
reading successfully : 6304668 15
reading successfully : 6304672 9
reading successfully : 6304676 3
reading successfully : 6304680 17
reading successfully : 6304684 11
reading successfully : 6304688 5
reading successfully : 6304692 19
reading successfully : 6304696 13
reading successfully : 6304700 7
reading successfully : 6304704 1
reading successfully : 6304708 16
reading successfully : 6304712 11
reading successfully : 6304716 6
reading successfully : 6304720 1
reading successfully : 6304724 16
reading successfully : 6304728 11
reading successfully : 6304732 6
reading successfully : 6304736 1
reading successfully : 6304740 16
reading successfully : 6304744 11
reading successfully : 6304748 6
reading successfully : 6304752 1
reading successfully : 6304756 16
reading successfully : 6304760 11
reading successfully : 6304764 6
reading successfully : 6304768 1
reading successfully : 6304772 16
reading successfully : 6304776 11
reading successfully : 6304780 6
reading successfully : 6304784 1
reading successfully : 6304788 16
reading successfully : 6304792 11
reading successfully : 6304796 6
reading successfully : 6304800 1
reading successfully : 6304804 16
reading successfully : 6304808 11
reading successfully : 6304812 6
reading successfully : 6304816 1
reading successfully : 6304820 16
reading successfully : 6304824 11
reading successfully : 6304828 6
reading successfully : 6304832 1
reading successfully : 6304836 16
reading successfully : 6304840 11
reading successfully : 6304844 6
reading successfully : 6304848 1
reading successfully : 6304852 16
reading successfully : 6304856 11
reading successfully : 6304860 6
reading successfully : 6304864 1
reading successfully : 6304868 17
reading successfully : 6304872 13
reading successfully : 6304876 9
reading successfully : 6304880 5
reading successfully : 6304884 1
reading successfully : 6304888 17
reading successfully : 6304892 13
reading successfully : 6304896 9
reading successfully : 6304900 5
reading successfully : 6304904 1
reading successfully : 6304908 17
reading successfully : 6304912 13
reading successfully : 6304916 9
reading successfully : 6304920 5
reading successfully : 6304924 1
reading successfully : 6304928 17
reading successfully : 6304932 13
reading successfully : 6304936 9
reading successfully : 6304940 5
reading successfully : 6304944 1
reading successfully : 6304948 17
reading successfully : 6304952 13
reading successfully : 6304956 9
reading successfully : 6304960 5
reading successfully : 6304964 1
reading successfully : 6304968 17
reading successfully : 6304972 13
reading successfully : 6304976 9
reading successfully : 6304980 5
reading successfully : 6304984 1
reading successfully : 6304988 17
reading successfully : 6304992 13
reading successfully : 6304996 9
reading successfully : 6305000 5
reading successfully : 6305004 1
reading successfully : 6305008 17
reading successfully : 6305012 13
reading successfully : 6305016 9
reading successfully : 6305020 5
reading successfully : 6305024 1
reading successfully : 6305028 18
reading successfully : 6305032 15
reading successfully : 6305036 12
reading successfully : 6305040 9
reading successfully : 6305044 6
reading successfully : 6305048 3
reading successfully : 6305052 0
reading successfully : 6305056 17
reading successfully : 6305060 14
reading successfully : 6305064 11
reading successfully : 6305068 8
reading successfully : 6305072 5
reading successfully : 6305076 2
reading successfully : 6305080 19
reading successfully : 6305084 16
reading successfully : 6305088 13
reading successfully : 6305092 10
reading successfully : 6305096 7
reading successfully : 6305100 4
reading successfully : 6305104 1
reading successfully : 6305108 18
reading successfully : 6305112 15
reading successfully : 6305116 12
reading successfully : 6305120 9
reading successfully : 6305124 6
reading successfully : 6305128 3
reading successfully : 6305132 0
reading successfully : 6305136 17
reading successfully : 6305140 14
reading successfully : 6305144 11
reading successfully : 6305148 8
reading successfully : 6305152 5
reading successfully : 6305156 2
reading successfully : 6305160 19
reading successfully : 6305164 16
reading successfully : 6305168 13
reading successfully : 6305172 10
reading successfully : 6305176 7
reading successfully : 6305180 4
reading successfully : 6305184 1
reading successfully : 6305188 19
reading successfully : 6305192 17
reading successfully : 6305196 15
reading successfully : 6305200 13
reading successfully : 6305204 11
reading successfully : 6305208 9
reading successfully : 6305212 7
reading successfully : 6305216 5
reading successfully : 6305220 3
reading successfully : 6305224 1
reading successfully : 6305228 19
reading successfully : 6305232 17
reading successfully : 6305236 15
reading successfully : 6305240 13
reading successfully : 6305244 11
reading successfully : 6305248 9
reading successfully : 6305252 7
reading successfully : 6305256 5
reading successfully : 6305260 3
reading successfully : 6305264 1
reading successfully : 6305268 19
reading successfully : 6305272 17
reading successfully : 6305276 15
reading successfully : 6305280 13
reading successfully : 6305284 11
reading successfully : 6305288 9
reading successfully : 6305292 7
reading successfully : 6305296 5
reading successfully : 6305300 3
reading successfully : 6305304 1
reading successfully : 6305308 19
reading successfully : 6305312 17
reading successfully : 6305316 15
reading successfully : 6305320 13
reading successfully : 6305324 11
reading successfully : 6305328 9
reading successfully : 6305332 7
reading successfully : 6305336 5
reading successfully : 6305340 3
reading successfully : 6305344 1
reading successfully : 6305348 0
reading successfully : 6305352 19
reading successfully : 6305356 18
reading successfully : 6305360 17
reading successfully : 6305364 16
reading successfully : 6305368 15
reading successfully : 6305372 14
reading successfully : 6305376 13
reading successfully : 6305380 12
reading successfully : 6305384 11
reading successfully : 6305388 10
reading successfully : 6305392 9
reading successfully : 6305396 8
reading successfully : 6305400 7
reading successfully : 6305404 6
reading successfully : 6305408 5
reading successfully : 6305412 4
reading successfully : 6305416 3
reading successfully : 6305420 2
reading successfully : 6305424 1
reading successfully : 6305428 0
reading successfully : 6305432 19
reading successfully : 6305436 18
reading successfully : 6305440 17
reading successfully : 6305444 16
reading successfully : 6305448 15
reading successfully : 6305452 14
reading successfully : 6305456 13
reading successfully : 6305460 12
reading successfully : 6305464 11
reading successfully : 6305468 10
reading successfully : 6305472 9
reading successfully : 6305476 8
reading successfully : 6305480 7
reading successfully : 6305484 6
reading successfully : 6305488 5
reading successfully : 6305492 4
reading successfully : 6305496 3
reading successfully : 6305500 2
reading successfully : 6305504 0
reading successfully : 6305508 0
reading successfully : 6305512 0
reading successfully : 6305516 0
reading successfully : 6305520 0
reading successfully : 6305524 0
reading successfully : 6305528 0
reading successfully : 6305532 0
reading successfully : 6305536 0
reading successfully : 6305540 0
reading successfully : 6305544 0
reading successfully : 6305548 0
reading successfully : 6305552 0
reading successfully : 6305556 0
reading successfully : 6305560 0
reading successfully : 6305564 0
reading successfully : 6305568 0
reading successfully : 6305572 0
reading successfully : 6305576 0
reading successfully : 6305580 0
reading successfully : 6305584 0
reading successfully : 6305588 0
reading successfully : 6305592 0
reading successfully : 6305596 0
reading successfully : 6305600 0
reading successfully : 6305604 0
reading successfully : 6305608 0
reading successfully : 6305612 0
reading successfully : 6305616 0
reading successfully : 6305620 0
reading successfully : 6305624 1
reading successfully : 6305628 2
reading successfully : 6305632 3
reading successfully : 6305636 4
reading successfully : 6305640 5
reading successfully : 6305644 6
reading successfully : 6305648 7
reading successfully : 6305652 8
reading successfully : 6305656 9
reading successfully : 6305660 10
reading successfully : 6305664 11
reading successfully : 6305668 12
reading successfully : 6305672 13
reading successfully : 6305676 14
reading successfully : 6305680 15
reading successfully : 6305684 16
reading successfully : 6305688 17
reading successfully : 6305692 18
reading successfully : 6305696 19
reading successfully : 6305700 20
reading successfully : 6305704 21
reading successfully : 6305708 22
reading successfully : 6305712 23
reading successfully : 6305716 24
reading successfully : 6305720 25
reading successfully : 6305724 26
reading successfully : 6305728 27
reading successfully : 6305732 28
reading successfully : 6305736 29
reading successfully : 6305740 0
reading successfully : 6305744 2
reading successfully : 6305748 4
reading successfully : 6305752 6
reading successfully : 6305756 8
reading successfully : 6305760 10
reading successfully : 6305764 12
reading successfully : 6305768 14
reading successfully : 6305772 16
reading successfully : 6305776 18
reading successfully : 6305780 20
reading successfully : 6305784 22
reading successfully : 6305788 24
reading successfully : 6305792 26
reading successfully : 6305796 28
reading successfully : 6305800 0
reading successfully : 6305804 2
reading successfully : 6305808 4
reading successfully : 6305812 6
reading successfully : 6305816 8
reading successfully : 6305820 10
reading successfully : 6305824 12
reading successfully : 6305828 14
reading successfully : 6305832 16
reading successfully : 6305836 18
reading successfully : 6305840 20
reading successfully : 6305844 22
reading successfully : 6305848 24
reading successfully : 6305852 26
reading successfully : 6305856 28
reading successfully : 6305860 0
reading successfully : 6305864 3
reading successfully : 6305868 6
reading successfully : 6305872 9
reading successfully : 6305876 12
reading successfully : 6305880 15
reading successfully : 6305884 18
reading successfully : 6305888 21
reading successfully : 6305892 24
reading successfully : 6305896 27
reading successfully : 6305900 0
reading successfully : 6305904 3
reading successfully : 6305908 6
reading successfully : 6305912 9
reading successfully : 6305916 12
reading successfully : 6305920 15
reading successfully : 6305924 18
reading successfully : 6305928 21
reading successfully : 6305932 24
reading successfully : 6305936 27
reading successfully : 6305940 0
reading successfully : 6305944 3
reading successfully : 6305948 6
reading successfully : 6305952 9
reading successfully : 6305956 12
reading successfully : 6305960 15
reading successfully : 6305964 18
reading successfully : 6305968 21
reading successfully : 6305972 24
reading successfully : 6305976 27
reading successfully : 6305980 0
reading successfully : 6305984 4
reading successfully : 6305988 8
reading successfully : 6305992 12
reading successfully : 6305996 16
reading successfully : 6306000 20
reading successfully : 6306004 24
reading successfully : 6306008 28
reading successfully : 6306012 2
reading successfully : 6306016 6
reading successfully : 6306020 10
reading successfully : 6306024 14
reading successfully : 6306028 18
reading successfully : 6306032 22
reading successfully : 6306036 26
reading successfully : 6306040 0
reading successfully : 6306044 4
reading successfully : 6306048 8
reading successfully : 6306052 12
reading successfully : 6306056 16
reading successfully : 6306060 20
reading successfully : 6306064 24
reading successfully : 6306068 28
reading successfully : 6306072 2
reading successfully : 6306076 6
reading successfully : 6306080 10
reading successfully : 6306084 14
reading successfully : 6306088 18
reading successfully : 6306092 22
reading successfully : 6306096 26
reading successfully : 6306100 0
reading successfully : 6306104 5
reading successfully : 6306108 10
reading successfully : 6306112 15
reading successfully : 6306116 20
reading successfully : 6306120 25
reading successfully : 6306124 0
reading successfully : 6306128 5
reading successfully : 6306132 10
reading successfully : 6306136 15
reading successfully : 6306140 20
reading successfully : 6306144 25
reading successfully : 6306148 0
reading successfully : 6306152 5
reading successfully : 6306156 10
reading successfully : 6306160 15
reading successfully : 6306164 20
reading successfully : 6306168 25
reading successfully : 6306172 0
reading successfully : 6306176 5
reading successfully : 6306180 10
reading successfully : 6306184 15
reading successfully : 6306188 20
reading successfully : 6306192 25
reading successfully : 6306196 0
reading successfully : 6306200 5
reading successfully : 6306204 10
reading successfully : 6306208 15
reading successfully : 6306212 20
reading successfully : 6306216 25
reading successfully : 6306220 0
reading successfully : 6306224 6
reading successfully : 6306228 12
reading successfully : 6306232 18
reading successfully : 6306236 24
reading successfully : 6306240 0
reading successfully : 6306244 6
reading successfully : 6306248 12
reading successfully : 6306252 18
reading successfully : 6306256 24
reading successfully : 6306260 0
reading successfully : 6306264 6
reading successfully : 6306268 12
reading successfully : 6306272 18
reading successfully : 6306276 24
reading successfully : 6306280 0
reading successfully : 6306284 6
reading successfully : 6306288 12
reading successfully : 6306292 18
reading successfully : 6306296 24
reading successfully : 6306300 0
reading successfully : 6306304 6
reading successfully : 6306308 12
reading successfully : 6306312 18
reading successfully : 6306316 24
reading successfully : 6306320 0
reading successfully : 6306324 6
reading successfully : 6306328 12
reading successfully : 6306332 18
reading successfully : 6306336 24
reading successfully : 6306340 0
reading successfully : 6306344 7
reading successfully : 6306348 14
reading successfully : 6306352 21
reading successfully : 6306356 28
reading successfully : 6306360 5
reading successfully : 6306364 12
reading successfully : 6306368 19
reading successfully : 6306372 26
reading successfully : 6306376 3
reading successfully : 6306380 10
reading successfully : 6306384 17
reading successfully : 6306388 24
reading successfully : 6306392 1
reading successfully : 6306396 8
reading successfully : 6306400 15
reading successfully : 6306404 22
reading successfully : 6306408 29
reading successfully : 6306412 6
reading successfully : 6306416 13
reading successfully : 6306420 20
reading successfully : 6306424 27
reading successfully : 6306428 4
reading successfully : 6306432 11
reading successfully : 6306436 18
reading successfully : 6306440 25
reading successfully : 6306444 2
reading successfully : 6306448 9
reading successfully : 6306452 16
reading successfully : 6306456 23
reading successfully : 6306460 0
reading successfully : 6306464 8
reading successfully : 6306468 16
reading successfully : 6306472 24
reading successfully : 6306476 2
reading successfully : 6306480 10
reading successfully : 6306484 18
reading successfully : 6306488 26
reading successfully : 6306492 4
reading successfully : 6306496 12
reading successfully : 6306500 20
reading successfully : 6306504 28
reading successfully : 6306508 6
reading successfully : 6306512 14
reading successfully : 6306516 22
reading successfully : 6306520 0
reading successfully : 6306524 8
reading successfully : 6306528 16
reading successfully : 6306532 24
reading successfully : 6306536 2
reading successfully : 6306540 10
reading successfully : 6306544 18
reading successfully : 6306548 26
reading successfully : 6306552 4
reading successfully : 6306556 12
reading successfully : 6306560 20
reading successfully : 6306564 28
reading successfully : 6306568 6
reading successfully : 6306572 14
reading successfully : 6306576 22
reading successfully : 6306580 0
reading successfully : 6306584 9
reading successfully : 6306588 18
reading successfully : 6306592 27
reading successfully : 6306596 6
reading successfully : 6306600 15
reading successfully : 6306604 24
reading successfully : 6306608 3
reading successfully : 6306612 12
reading successfully : 6306616 21
reading successfully : 6306620 0
reading successfully : 6306624 9
reading successfully : 6306628 18
reading successfully : 6306632 27
reading successfully : 6306636 6
reading successfully : 6306640 15
reading successfully : 6306644 24
reading successfully : 6306648 3
reading successfully : 6306652 12
reading successfully : 6306656 21
reading successfully : 6306660 0
reading successfully : 6306664 9
reading successfully : 6306668 18
reading successfully : 6306672 27
reading successfully : 6306676 6
reading successfully : 6306680 15
reading successfully : 6306684 24
reading successfully : 6306688 3
reading successfully : 6306692 12
reading successfully : 6306696 21
reading successfully : 6306700 0
reading successfully : 6306704 10
reading successfully : 6306708 20
reading successfully : 6306712 0
reading successfully : 6306716 10
reading successfully : 6306720 20
reading successfully : 6306724 0
reading successfully : 6306728 10
reading successfully : 6306732 20
reading successfully : 6306736 0
reading successfully : 6306740 10
reading successfully : 6306744 20
reading successfully : 6306748 0
reading successfully : 6306752 10
reading successfully : 6306756 20
reading successfully : 6306760 0
reading successfully : 6306764 10
reading successfully : 6306768 20
reading successfully : 6306772 0
reading successfully : 6306776 10
reading successfully : 6306780 20
reading successfully : 6306784 0
reading successfully : 6306788 10
reading successfully : 6306792 20
reading successfully : 6306796 0
reading successfully : 6306800 10
reading successfully : 6306804 20
reading successfully : 6306808 0
reading successfully : 6306812 10
reading successfully : 6306816 20
reading successfully : 6306820 0
reading successfully : 6306824 11
reading successfully : 6306828 22
reading successfully : 6306832 3
reading successfully : 6306836 14
reading successfully : 6306840 25
reading successfully : 6306844 6
reading successfully : 6306848 17
reading successfully : 6306852 28
reading successfully : 6306856 9
reading successfully : 6306860 20
reading successfully : 6306864 1
reading successfully : 6306868 12
reading successfully : 6306872 23
reading successfully : 6306876 4
reading successfully : 6306880 15
reading successfully : 6306884 26
reading successfully : 6306888 7
reading successfully : 6306892 18
reading successfully : 6306896 29
reading successfully : 6306900 10
reading successfully : 6306904 21
reading successfully : 6306908 2
reading successfully : 6306912 13
reading successfully : 6306916 24
reading successfully : 6306920 5
reading successfully : 6306924 16
reading successfully : 6306928 27
reading successfully : 6306932 8
reading successfully : 6306936 19
reading successfully : 6306940 0
reading successfully : 6306944 12
reading successfully : 6306948 24
reading successfully : 6306952 6
reading successfully : 6306956 18
reading successfully : 6306960 0
reading successfully : 6306964 12
reading successfully : 6306968 24
reading successfully : 6306972 6
reading successfully : 6306976 18
reading successfully : 6306980 0
reading successfully : 6306984 12
reading successfully : 6306988 24
reading successfully : 6306992 6
reading successfully : 6306996 18
reading successfully : 6307000 0
reading successfully : 6307004 12
reading successfully : 6307008 24
reading successfully : 6307012 6
reading successfully : 6307016 18
reading successfully : 6307020 0
reading successfully : 6307024 12
reading successfully : 6307028 24
reading successfully : 6307032 6
reading successfully : 6307036 18
reading successfully : 6307040 0
reading successfully : 6307044 12
reading successfully : 6307048 24
reading successfully : 6307052 6
reading successfully : 6307056 18
reading successfully : 6307060 0
reading successfully : 6307064 13
reading successfully : 6307068 26
reading successfully : 6307072 9
reading successfully : 6307076 22
reading successfully : 6307080 5
reading successfully : 6307084 18
reading successfully : 6307088 1
reading successfully : 6307092 14
reading successfully : 6307096 27
reading successfully : 6307100 10
reading successfully : 6307104 23
reading successfully : 6307108 6
reading successfully : 6307112 19
reading successfully : 6307116 2
reading successfully : 6307120 15
reading successfully : 6307124 28
reading successfully : 6307128 11
reading successfully : 6307132 24
reading successfully : 6307136 7
reading successfully : 6307140 20
reading successfully : 6307144 3
reading successfully : 6307148 16
reading successfully : 6307152 29
reading successfully : 6307156 12
reading successfully : 6307160 25
reading successfully : 6307164 8
reading successfully : 6307168 21
reading successfully : 6307172 4
reading successfully : 6307176 17
reading successfully : 6307180 0
reading successfully : 6307184 14
reading successfully : 6307188 28
reading successfully : 6307192 12
reading successfully : 6307196 26
reading successfully : 6307200 10
reading successfully : 6307204 24
reading successfully : 6307208 8
reading successfully : 6307212 22
reading successfully : 6307216 6
reading successfully : 6307220 20
reading successfully : 6307224 4
reading successfully : 6307228 18
reading successfully : 6307232 2
reading successfully : 6307236 16
reading successfully : 6307240 0
reading successfully : 6307244 14
reading successfully : 6307248 28
reading successfully : 6307252 12
reading successfully : 6307256 26
reading successfully : 6307260 10
reading successfully : 6307264 24
reading successfully : 6307268 8
reading successfully : 6307272 22
reading successfully : 6307276 6
reading successfully : 6307280 20
reading successfully : 6307284 4
reading successfully : 6307288 18
reading successfully : 6307292 2
reading successfully : 6307296 16
reading successfully : 6307300 0
reading successfully : 6307304 15
reading successfully : 6307308 0
reading successfully : 6307312 15
reading successfully : 6307316 0
reading successfully : 6307320 15
reading successfully : 6307324 0
reading successfully : 6307328 15
reading successfully : 6307332 0
reading successfully : 6307336 15
reading successfully : 6307340 0
reading successfully : 6307344 15
reading successfully : 6307348 0
reading successfully : 6307352 15
reading successfully : 6307356 0
reading successfully : 6307360 15
reading successfully : 6307364 0
reading successfully : 6307368 15
reading successfully : 6307372 0
reading successfully : 6307376 15
reading successfully : 6307380 0
reading successfully : 6307384 15
reading successfully : 6307388 0
reading successfully : 6307392 15
reading successfully : 6307396 0
reading successfully : 6307400 15
reading successfully : 6307404 0
reading successfully : 6307408 15
reading successfully : 6307412 0
reading successfully : 6307416 15
reading successfully : 6307420 0
reading successfully : 6307424 16
reading successfully : 6307428 2
reading successfully : 6307432 18
reading successfully : 6307436 4
reading successfully : 6307440 20
reading successfully : 6307444 6
reading successfully : 6307448 22
reading successfully : 6307452 8
reading successfully : 6307456 24
reading successfully : 6307460 10
reading successfully : 6307464 26
reading successfully : 6307468 12
reading successfully : 6307472 28
reading successfully : 6307476 14
reading successfully : 6307480 0
reading successfully : 6307484 16
reading successfully : 6307488 2
reading successfully : 6307492 18
reading successfully : 6307496 4
reading successfully : 6307500 20
reading successfully : 6307504 6
reading successfully : 6307508 22
reading successfully : 6307512 8
reading successfully : 6307516 24
reading successfully : 6307520 10
reading successfully : 6307524 26
reading successfully : 6307528 12
reading successfully : 6307532 28
reading successfully : 6307536 14
reading successfully : 6307540 0
reading successfully : 6307544 17
reading successfully : 6307548 4
reading successfully : 6307552 21
reading successfully : 6307556 8
reading successfully : 6307560 25
reading successfully : 6307564 12
reading successfully : 6307568 29
reading successfully : 6307572 16
reading successfully : 6307576 3
reading successfully : 6307580 20
reading successfully : 6307584 7
reading successfully : 6307588 24
reading successfully : 6307592 11
reading successfully : 6307596 28
reading successfully : 6307600 15
reading successfully : 6307604 2
reading successfully : 6307608 19
reading successfully : 6307612 6
reading successfully : 6307616 23
reading successfully : 6307620 10
reading successfully : 6307624 27
reading successfully : 6307628 14
reading successfully : 6307632 1
reading successfully : 6307636 18
reading successfully : 6307640 5
reading successfully : 6307644 22
reading successfully : 6307648 9
reading successfully : 6307652 26
reading successfully : 6307656 13
reading successfully : 6307660 0
reading successfully : 6307664 18
reading successfully : 6307668 6
reading successfully : 6307672 24
reading successfully : 6307676 12
reading successfully : 6307680 0
reading successfully : 6307684 18
reading successfully : 6307688 6
reading successfully : 6307692 24
reading successfully : 6307696 12
reading successfully : 6307700 0
reading successfully : 6307704 18
reading successfully : 6307708 6
reading successfully : 6307712 24
reading successfully : 6307716 12
reading successfully : 6307720 0
reading successfully : 6307724 18
reading successfully : 6307728 6
reading successfully : 6307732 24
reading successfully : 6307736 12
reading successfully : 6307740 0
reading successfully : 6307744 18
reading successfully : 6307748 6
reading successfully : 6307752 24
reading successfully : 6307756 12
reading successfully : 6307760 0
reading successfully : 6307764 18
reading successfully : 6307768 6
reading successfully : 6307772 24
reading successfully : 6307776 12
reading successfully : 6307780 0
reading successfully : 6307784 19
reading successfully : 6307788 8
reading successfully : 6307792 27
reading successfully : 6307796 16
reading successfully : 6307800 5
reading successfully : 6307804 24
reading successfully : 6307808 13
reading successfully : 6307812 2
reading successfully : 6307816 21
reading successfully : 6307820 10
reading successfully : 6307824 29
reading successfully : 6307828 18
reading successfully : 6307832 7
reading successfully : 6307836 26
reading successfully : 6307840 15
reading successfully : 6307844 4
reading successfully : 6307848 23
reading successfully : 6307852 12
reading successfully : 6307856 1
reading successfully : 6307860 20
reading successfully : 6307864 9
reading successfully : 6307868 28
reading successfully : 6307872 17
reading successfully : 6307876 6
reading successfully : 6307880 25
reading successfully : 6307884 14
reading successfully : 6307888 3
reading successfully : 6307892 22
reading successfully : 6307896 11
reading successfully : 6307900 0
reading successfully : 6307904 20
reading successfully : 6307908 10
reading successfully : 6307912 0
reading successfully : 6307916 20
reading successfully : 6307920 10
reading successfully : 6307924 0
reading successfully : 6307928 20
reading successfully : 6307932 10
reading successfully : 6307936 0
reading successfully : 6307940 20
reading successfully : 6307944 10
reading successfully : 6307948 0
reading successfully : 6307952 20
reading successfully : 6307956 10
reading successfully : 6307960 0
reading successfully : 6307964 20
reading successfully : 6307968 10
reading successfully : 6307972 0
reading successfully : 6307976 20
reading successfully : 6307980 10
reading successfully : 6307984 0
reading successfully : 6307988 20
reading successfully : 6307992 10
reading successfully : 6307996 0
reading successfully : 6308000 20
reading successfully : 6308004 10
reading successfully : 6308008 0
reading successfully : 6308012 20
reading successfully : 6308016 10
reading successfully : 6308020 0
reading successfully : 6308024 21
reading successfully : 6308028 12
reading successfully : 6308032 3
reading successfully : 6308036 24
reading successfully : 6308040 15
reading successfully : 6308044 6
reading successfully : 6308048 27
reading successfully : 6308052 18
reading successfully : 6308056 9
reading successfully : 6308060 0
reading successfully : 6308064 21
reading successfully : 6308068 12
reading successfully : 6308072 3
reading successfully : 6308076 24
reading successfully : 6308080 15
reading successfully : 6308084 6
reading successfully : 6308088 27
reading successfully : 6308092 18
reading successfully : 6308096 9
reading successfully : 6308100 0
reading successfully : 6308104 21
reading successfully : 6308108 12
reading successfully : 6308112 3
reading successfully : 6308116 24
reading successfully : 6308120 15
reading successfully : 6308124 6
reading successfully : 6308128 27
reading successfully : 6308132 18
reading successfully : 6308136 9
reading successfully : 6308140 0
reading successfully : 6308144 22
reading successfully : 6308148 14
reading successfully : 6308152 6
reading successfully : 6308156 28
reading successfully : 6308160 20
reading successfully : 6308164 12
reading successfully : 6308168 4
reading successfully : 6308172 26
reading successfully : 6308176 18
reading successfully : 6308180 10
reading successfully : 6308184 2
reading successfully : 6308188 24
reading successfully : 6308192 16
reading successfully : 6308196 8
reading successfully : 6308200 0
reading successfully : 6308204 22
reading successfully : 6308208 14
reading successfully : 6308212 6
reading successfully : 6308216 28
reading successfully : 6308220 20
reading successfully : 6308224 12
reading successfully : 6308228 4
reading successfully : 6308232 26
reading successfully : 6308236 18
reading successfully : 6308240 10
reading successfully : 6308244 2
reading successfully : 6308248 24
reading successfully : 6308252 16
reading successfully : 6308256 8
reading successfully : 6308260 0
reading successfully : 6308264 23
reading successfully : 6308268 16
reading successfully : 6308272 9
reading successfully : 6308276 2
reading successfully : 6308280 25
reading successfully : 6308284 18
reading successfully : 6308288 11
reading successfully : 6308292 4
reading successfully : 6308296 27
reading successfully : 6308300 20
reading successfully : 6308304 13
reading successfully : 6308308 6
reading successfully : 6308312 29
reading successfully : 6308316 22
reading successfully : 6308320 15
reading successfully : 6308324 8
reading successfully : 6308328 1
reading successfully : 6308332 24
reading successfully : 6308336 17
reading successfully : 6308340 10
reading successfully : 6308344 3
reading successfully : 6308348 26
reading successfully : 6308352 19
reading successfully : 6308356 12
reading successfully : 6308360 5
reading successfully : 6308364 28
reading successfully : 6308368 21
reading successfully : 6308372 14
reading successfully : 6308376 7
reading successfully : 6308380 0
reading successfully : 6308384 24
reading successfully : 6308388 18
reading successfully : 6308392 12
reading successfully : 6308396 6
reading successfully : 6308400 0
reading successfully : 6308404 24
reading successfully : 6308408 18
reading successfully : 6308412 12
reading successfully : 6308416 6
reading successfully : 6308420 0
reading successfully : 6308424 24
reading successfully : 6308428 18
reading successfully : 6308432 12
reading successfully : 6308436 6
reading successfully : 6308440 0
reading successfully : 6308444 24
reading successfully : 6308448 18
reading successfully : 6308452 12
reading successfully : 6308456 6
reading successfully : 6308460 0
reading successfully : 6308464 24
reading successfully : 6308468 18
reading successfully : 6308472 12
reading successfully : 6308476 6
reading successfully : 6308480 0
reading successfully : 6308484 24
reading successfully : 6308488 18
reading successfully : 6308492 12
reading successfully : 6308496 6
reading successfully : 6308500 0
reading successfully : 6308504 25
reading successfully : 6308508 20
reading successfully : 6308512 15
reading successfully : 6308516 10
reading successfully : 6308520 5
reading successfully : 6308524 0
reading successfully : 6308528 25
reading successfully : 6308532 20
reading successfully : 6308536 15
reading successfully : 6308540 10
reading successfully : 6308544 5
reading successfully : 6308548 0
reading successfully : 6308552 25
reading successfully : 6308556 20
reading successfully : 6308560 15
reading successfully : 6308564 10
reading successfully : 6308568 5
reading successfully : 6308572 0
reading successfully : 6308576 25
reading successfully : 6308580 20
reading successfully : 6308584 15
reading successfully : 6308588 10
reading successfully : 6308592 5
reading successfully : 6308596 0
reading successfully : 6308600 25
reading successfully : 6308604 20
reading successfully : 6308608 15
reading successfully : 6308612 10
reading successfully : 6308616 5
reading successfully : 6308620 0
reading successfully : 6308624 26
reading successfully : 6308628 22
reading successfully : 6308632 18
reading successfully : 6308636 14
reading successfully : 6308640 10
reading successfully : 6308644 6
reading successfully : 6308648 2
reading successfully : 6308652 28
reading successfully : 6308656 24
reading successfully : 6308660 20
reading successfully : 6308664 16
reading successfully : 6308668 12
reading successfully : 6308672 8
reading successfully : 6308676 4
reading successfully : 6308680 0
reading successfully : 6308684 26
reading successfully : 6308688 22
reading successfully : 6308692 18
reading successfully : 6308696 14
reading successfully : 6308700 10
reading successfully : 6308704 6
reading successfully : 6308708 2
reading successfully : 6308712 28
reading successfully : 6308716 24
reading successfully : 6308720 20
reading successfully : 6308724 16
reading successfully : 6308728 12
reading successfully : 6308732 8
reading successfully : 6308736 4
reading successfully : 6308740 0
reading successfully : 6308744 27
reading successfully : 6308748 24
reading successfully : 6308752 21
reading successfully : 6308756 18
reading successfully : 6308760 15
reading successfully : 6308764 12
reading successfully : 6308768 9
reading successfully : 6308772 6
reading successfully : 6308776 3
reading successfully : 6308780 0
reading successfully : 6308784 27
reading successfully : 6308788 24
reading successfully : 6308792 21
reading successfully : 6308796 18
reading successfully : 6308800 15
reading successfully : 6308804 12
reading successfully : 6308808 9
reading successfully : 6308812 6
reading successfully : 6308816 3
reading successfully : 6308820 0
reading successfully : 6308824 27
reading successfully : 6308828 24
reading successfully : 6308832 21
reading successfully : 6308836 18
reading successfully : 6308840 15
reading successfully : 6308844 12
reading successfully : 6308848 9
reading successfully : 6308852 6
reading successfully : 6308856 3
reading successfully : 6308860 0
reading successfully : 6308864 28
reading successfully : 6308868 26
reading successfully : 6308872 24
reading successfully : 6308876 22
reading successfully : 6308880 20
reading successfully : 6308884 18
reading successfully : 6308888 16
reading successfully : 6308892 14
reading successfully : 6308896 12
reading successfully : 6308900 10
reading successfully : 6308904 8
reading successfully : 6308908 6
reading successfully : 6308912 4
reading successfully : 6308916 2
reading successfully : 6308920 0
reading successfully : 6308924 28
reading successfully : 6308928 26
reading successfully : 6308932 24
reading successfully : 6308936 22
reading successfully : 6308940 20
reading successfully : 6308944 18
reading successfully : 6308948 16
reading successfully : 6308952 14
reading successfully : 6308956 12
reading successfully : 6308960 10
reading successfully : 6308964 8
reading successfully : 6308968 6
reading successfully : 6308972 4
reading successfully : 6308976 2
reading successfully : 6308980 0
reading successfully : 6308984 29
reading successfully : 6308988 28
reading successfully : 6308992 27
reading successfully : 6308996 26
reading successfully : 6309000 25
reading successfully : 6309004 24
reading successfully : 6309008 23
reading successfully : 6309012 22
reading successfully : 6309016 21
reading successfully : 6309020 20
reading successfully : 6309024 19
reading successfully : 6309028 18
reading successfully : 6309032 17
reading successfully : 6309036 16
reading successfully : 6309040 15
reading successfully : 6309044 14
reading successfully : 6309048 13
reading successfully : 6309052 12
reading successfully : 6309056 11
reading successfully : 6309060 10
reading successfully : 6309064 9
reading successfully : 6309068 8
reading successfully : 6309072 7
reading successfully : 6309076 6
reading successfully : 6309080 5
reading successfully : 6309084 4
reading successfully : 6309088 3
reading successfully : 6309092 2
reading successfully : 6309096 1
reading successfully : 6309100 0
reading successfully : 6309104 0
reading successfully : 6309108 0
reading successfully : 6309112 0
reading successfully : 6309116 0
reading successfully : 6309120 0
reading successfully : 6309124 0
reading successfully : 6309128 0
reading successfully : 6309132 0
reading successfully : 6309136 0
reading successfully : 6309140 0
reading successfully : 6309144 0
reading successfully : 6309148 0
reading successfully : 6309152 0
reading successfully : 6309156 0
reading successfully : 6309160 0
reading successfully : 6309164 0
reading successfully : 6309168 0
reading successfully : 6309172 0
reading successfully : 6309176 0
reading successfully : 6309180 0
reading successfully : 6309184 0
reading successfully : 6309188 0
reading successfully : 6309192 0
reading successfully : 6309196 0
reading successfully : 6309200 0
reading successfully : 6309204 0
reading successfully : 6309208 0
reading successfully : 6309212 0
reading successfully : 6309216 0
reading successfully : 6309220 0
reading successfully : 6309224 1
reading successfully : 6309228 2
reading successfully : 6309232 3
reading successfully : 6309236 4
reading successfully : 6309240 5
reading successfully : 6309244 6
reading successfully : 6309248 7
reading successfully : 6309252 8
reading successfully : 6309256 9
reading successfully : 6309260 10
reading successfully : 6309264 11
reading successfully : 6309268 12
reading successfully : 6309272 13
reading successfully : 6309276 14
reading successfully : 6309280 15
reading successfully : 6309284 16
reading successfully : 6309288 17
reading successfully : 6309292 18
reading successfully : 6309296 19
reading successfully : 6309300 20
reading successfully : 6309304 21
reading successfully : 6309308 22
reading successfully : 6309312 23
reading successfully : 6309316 24
reading successfully : 6309320 25
reading successfully : 6309324 26
reading successfully : 6309328 27
reading successfully : 6309332 28
reading successfully : 6309336 29
reading successfully : 6309340 0
reading successfully : 6309344 2
reading successfully : 6309348 4
reading successfully : 6309352 6
reading successfully : 6309356 8
reading successfully : 6309360 10
reading successfully : 6309364 12
reading successfully : 6309368 14
reading successfully : 6309372 16
reading successfully : 6309376 18
reading successfully : 6309380 20
reading successfully : 6309384 22
reading successfully : 6309388 24
[...]
writing back 7785600 6317616
writing back 7814898 6317620
writing back 8657196 6317624
writing back 7414494 6317628
writing back 7683672 6317632
writing back 7724970 6317636
writing back 7856268 6317640
writing back 7714566 6317644
writing back 7665864 6317648
writing back 7050162 6317652
writing back 8129340 6317656
writing back 7954638 6317660
writing back 7707936 6317664
writing back 8106234 6317668
writing back 7784532 6317672
writing back 8335830 6317676
writing back 8362128 6317680
writing back 8610306 6317684
writing back 10721604 6317688
writing back 319902 6317692
writing back 4882200 6317696
writing back 6909498 6317700
writing back 6651342 6317704
writing back 6687423 6317708
writing back 6729504 6317712
writing back 6805585 6317716
writing back 7446546 6317720
writing back 6990627 6317724
writing back 7054708 6317728
writing back 5838789 6317732
writing back 7393870 6317736
writing back 7256951 6317740
writing back 6690912 6317744
writing back 7304993 6317748
writing back 6898074 6317752
writing back 7507155 6317756
writing back 6366236 6317760
writing back 7110317 6317764
writing back 7210278 6317768
writing back 6034359 6317772
writing back 7183440 6317776
writing back 7334521 6317780
writing back 7450602 6317784
writing back 7473563 6317788
writing back 3817644 6317792
writing back 6971725 6317796
writing back 7003806 6317800
writing back 7110887 6317804
writing back 7384968 6317808
writing back 6289929 6317812
writing back 7218010 6317816
writing back 7335091 6317820
writing back 8113172 6317824
writing back 6938253 6317828
writing back 7001334 6317832
writing back 7140295 6317836
writing back 7287376 6317840
writing back 7188457 6317844
writing back 7223538 6317848
writing back 6485619 6317852
writing back 7494580 6317856
writing back 7454661 6317860
writing back 7049742 6317864
writing back 7639823 6317868
writing back 7169904 6317872
writing back 7757985 6317876
writing back 7873946 6317880
writing back 7926027 6317884
writing back 9908108 6317888
writing back 297189 6317892
writing back 4582270 6317896
writing back 6519351 6317900
writing back 6636348 6317904
writing back 6703212 6317908
writing back 6548076 6317912
writing back 6789820 6317916
writing back 7416684 6317920
writing back 7012548 6317924
writing back 6882412 6317928
writing back 5721276 6317932
writing back 7286020 6317936
writing back 7236884 6317940
writing back 6647748 6317944
writing back 7247612 6317948
writing back 6868476 6317952
writing back 7481220 6317956
writing back 6419084 6317960
writing back 7127948 6317964
writing back 7186812 6317968
writing back 5924676 6317972
writing back 7194420 6317976
writing back 7313284 6317980
writing back 7244148 6317984
writing back 7403012 6317988
writing back 3855876 6317992
writing back 6956620 6317996
writing back 7055484 6318000
writing back 7046348 6318004
writing back 7315212 6318008
writing back 6302076 6318012
writing back 7152820 6318016
writing back 7231684 6318020
writing back 7911548 6318024
writing back 6878412 6318028
writing back 6897276 6318032
writing back 7112020 6318036
writing back 7124884 6318040
writing back 7122748 6318044
writing back 7239612 6318048
writing back 6505476 6318052
writing back 7374220 6318056
writing back 7347084 6318060
writing back 6933948 6318064
writing back 7569812 6318068
writing back 7217676 6318072
writing back 7656420 6318076
writing back 7812284 6318080
writing back 7922148 6318084
writing back 9893012 6318088
writing back 294876 6318092
writing back 4496620 6318096
writing back 6437484 6318100
writing back 6606954 6318104
writing back 6567801 6318108
writing back 6642648 6318112
writing back 6773375 6318116
writing back 7269222 6318120
writing back 6900069 6318124
writing back 6958916 6318128
writing back 5735643 6318132
writing back 7309490 6318136
writing back 7191337 6318140
writing back 6566184 6318144
writing back 7191031 6318148
writing back 6802758 6318152
writing back 7366605 6318156
writing back 6302452 6318160
writing back 7067299 6318164
writing back 7072026 6318168
writing back 5922873 6318172
writing back 7116720 6318176
writing back 7202567 6318180
writing back 7311414 6318184
writing back 7429141 6318188
writing back 3713988 6318192
writing back 6796835 6318196
writing back 6893682 6318200
writing back 7023409 6318204
writing back 7250256 6318208
writing back 6242103 6318212
writing back 7146950 6318216
writing back 7158797 6318220
writing back 7919524 6318224
writing back 6859371 6318228
writing back 6877218 6318232
writing back 7035065 6318236
writing back 7148792 6318240
writing back 7034639 6318244
writing back 7080486 6318248
writing back 6429333 6318252
writing back 7313060 6318256
writing back 7325907 6318260
writing back 6959754 6318264
writing back 7452601 6318268
writing back 7037448 6318272
writing back 7658175 6318276
writing back 7689022 6318280
writing back 7867869 6318284
writing back 9794716 6318288
writing back 292443 6318292
writing back 4482290 6318296
writing back 6358137 6318300
writing back 4395960 6318304
writing back 4287990 6318308
writing back 4365900 6318312
writing back 4522930 6318316
writing back 4824960 6318320
writing back 4527990 6318324
writing back 4612900 6318328
writing back 3864930 6318332
writing back 4768960 6318336
writing back 4778990 6318340
writing back 4350900 6318344
writing back 4781930 6318348
writing back 4401960 6318352
writing back 4869990 6318356
writing back 4184900 6318360
writing back 4574930 6318364
writing back 4638960 6318368
writing back 3963990 6318372
writing back 4758900 6318376
writing back 4732930 6318380
writing back 4836960 6318384
writing back 4970990 6318388
writing back 2364900 6318392
writing back 4414930 6318396
writing back 4578960 6318400
writing back 4652990 6318404
writing back 4734900 6318408
writing back 4068930 6318412
writing back 4756960 6318416
writing back 4810990 6318420
writing back 5213900 6318424
writing back 4515930 6318428
writing back 4629960 6318432
writing back 4603990 6318436
writing back 4723900 6318440
writing back 4606930 6318444
writing back 4734960 6318448
writing back 4167990 6318452
writing back 4831900 6318456
writing back 4857930 6318460
writing back 4563960 6318464
writing back 4862990 6318468
writing back 4665900 6318472
writing back 5097930 6318476
writing back 5048960 6318480
writing back 5145990 6318484
writing back 6461900 6318488
writing back 192930 6318492
writing back 2959960 6318496
writing back 4239990 6318500
writing back 6608166 6318504
writing back 6578979 6318508
writing back 6567672 6318512
writing back 6738485 6318516
writing back 7394298 6318520
writing back 6897111 6318524
writing back 6935804 6318528
writing back 5710617 6318532
writing back 7312430 6318536
writing back 7138123 6318540
writing back 6534936 6318544
writing back 7319749 6318548
writing back 6815562 6318552
writing back 7395255 6318556
writing back 6317068 6318560
writing back 7019881 6318564
writing back 7130694 6318568
writing back 5937387 6318572
writing back 7141200 6318576
writing back 7231013 6318580
writing back 7337706 6318584
writing back 7435519 6318588
writing back 3766332 6318592
writing back 6811145 6318596
writing back 6869838 6318600
writing back 7015651 6318604
writing back 7300464 6318608
writing back 6224277 6318612
writing back 7102970 6318616
writing back 7226783 6318620
writing back 7979596 6318624
writing back 6851289 6318628
writing back 6849102 6318632
writing back 6926915 6318636
writing back 7200728 6318640
writing back 7108421 6318644
writing back 7146234 6318648
writing back 6451047 6318652
writing back 7422740 6318656
writing back 7349553 6318660
writing back 6915366 6318664
writing back 7508179 6318668
writing back 7096872 6318672
writing back 7667685 6318676
writing back 7726498 6318680
writing back 7849311 6318684
writing back 9822004 6318688
writing back 293817 6318692
writing back 4505630 6318696
writing back 6397323 6318700
writing back 6541572 6318704
writing back 6573168 6318708
writing back 6718644 6318712
writing back 6745240 6318716
writing back 7276836 6318720
writing back 6981312 6318724
writing back 6875908 6318728
writing back 5715504 6318732
writing back 7352980 6318736
writing back 7076576 6318740
writing back 6524172 6318744
writing back 7220768 6318748
writing back 6794244 6318752
writing back 7431840 6318756
writing back 6418436 6318760
writing back 6983912 6318764
writing back 7187508 6318768
writing back 5974104 6318772
writing back 7088580 6318776
writing back 7172176 6318780
writing back 7463772 6318784
writing back 7347368 6318788
writing back 3836844 6318792
writing back 6890440 6318796
writing back 6834036 6318800
writing back 7065512 6318804
writing back 7395108 6318808
writing back 6190704 6318812
writing back 7090180 6318816
writing back 7253776 6318820
writing back 7934372 6318824
writing back 6805968 6318828
writing back 7029444 6318832
writing back 7017040 6318836
writing back 7198636 6318840
writing back 7161112 6318844
writing back 7134708 6318848
writing back 6449304 6318852
writing back 7522780 6318856
writing back 7256376 6318860
writing back 7035972 6318864
writing back 7492568 6318868
writing back 7105044 6318872
writing back 7664640 6318876
writing back 7665236 6318880
writing back 7823712 6318884
writing back 9819308 6318888
writing back 293904 6318892
writing back 4520380 6318896
writing back 6413976 6318900
writing back 6520578 6318904
writing back 6521757 6318908
writing back 6408816 6318912
writing back 6679995 6318916
writing back 7116174 6318920
writing back 6811233 6318924
writing back 6830412 6318928
writing back 5583591 6318932
writing back 7189650 6318936
writing back 7079829 6318940
writing back 6463008 6318944
writing back 7124067 6318948
writing back 6684246 6318952
writing back 7264425 6318956
writing back 6248484 6318960
writing back 6957663 6318964
writing back 7018842 6318968
writing back 5837901 6318972
writing back 7012080 6318976
writing back 7082259 6318980
writing back 7227318 6318984
writing back 7345497 6318988
writing back 3662676 6318992
writing back 6681735 6318996
writing back 6790914 6319000
writing back 6945093 6319004
writing back 7228152 6319008
writing back 6104331 6319012
writing back 7005510 6319016
writing back 7069569 6319020
writing back 7790748 6319024
writing back 6762927 6319028
writing back 6760986 6319032
writing back 6903165 6319036
writing back 7069344 6319040
writing back 6947403 6319044
writing back 7041582 6319048
writing back 6358761 6319052
writing back 7250820 6319056
writing back 7215999 6319060
writing back 6926178 6319064
writing back 7347357 6319068
writing back 7036416 6319072
writing back 7505595 6319076
writing back 7584774 6319080
writing back 7759833 6319084
writing back 9663012 6319088
writing back 289191 6319092
writing back 4391250 6319096
writing back 6267429 6319100
writing back 7253184 6319104
writing back 7250226 6319108
writing back 7169388 6319112
writing back 7391550 6319116
writing back 8198592 6319120
writing back 7610754 6319124
writing back 7640916 6319128
writing back 6233958 6319132
writing back 7911120 6319136
writing back 7914282 6319140
writing back 7263324 6319144
writing back 8031486 6319148
writing back 7464648 6319152
writing back 8157690 6319156
writing back 6981852 6319160
writing back 7669014 6319164
writing back 7858056 6319168
writing back 6472218 6319172
writing back 7912260 6319176
writing back 8011422 6319180
writing back 7996584 6319184
writing back 8155626 6319188
writing back 4126788 6319192
writing back 7549950 6319196
writing back 7678992 6319200
writing back 7694154 6319204
writing back 7937316 6319208
writing back 6800358 6319212
writing back 7817520 6319216
writing back 8036682 6319220
writing back 8720724 6319224
writing back 7547886 6319228
writing back 7467048 6319232
writing back 7674090 6319236
writing back 7863252 6319240
writing back 7791414 6319244
writing back 7956456 6319248
writing back 7038618 6319252
writing back 8067660 6319256
writing back 8094822 6319260
writing back 7533984 6319264
writing back 8314026 6319268
writing back 7762188 6319272
writing back 8455350 6319276
writing back 8551392 6319280
writing back 8617554 6319284
writing back 10798716 6319288
writing back 322758 6319292
writing back 4954920 6319296
writing back 7088082 6319300
writing back 5986590 6319304
writing back 5919615 6319308
writing back 6038760 6319312
writing back 6171905 6319316
writing back 6549930 6319320
writing back 6219075 6319324
writing back 6280100 6319328
writing back 5293245 6319332
writing back 6593390 6319336
writing back 6549415 6319340
writing back 5992560 6319344
writing back 6559705 6319348
writing back 6125730 6319352
writing back 6679875 6319356
writing back 5695900 6319360
writing back 6337045 6319364
writing back 6422190 6319368
writing back 5443215 6319372
writing back 6489360 6319376
writing back 6529505 6319380
writing back 6574530 6319384
writing back 6754675 6319388
writing back 3359700 6319392
writing back 6150845 6319396
writing back 6315990 6319400
writing back 6376015 6319404
writing back 6539160 6319408
writing back 5629305 6319412
writing back 6518330 6319416
writing back 6568475 6319420
writing back 7187500 6319424
writing back 6225645 6319428
writing back 6305790 6319432
writing back 6345815 6319436
writing back 6461960 6319440
writing back 6356105 6319444
writing back 6440130 6319448
writing back 5779275 6319452
writing back 6689300 6319456
writing back 6686445 6319460
writing back 6298590 6319464
writing back 6733615 6319468
writing back 6392760 6319472
writing back 6985905 6319476
writing back 6982930 6319480
writing back 7116075 6319484
writing back 8883100 6319488
writing back 265245 6319492
writing back 4043390 6319496
writing back 5789415 6319500
writing back 6641196 6319504
writing back 6669804 6319508
writing back 6692532 6319512
writing back 6796140 6319516
writing back 7304868 6319520
writing back 6970596 6319524
writing back 6822204 6319528
writing back 5794932 6319532
writing back 7353540 6319536
writing back 7202268 6319540
writing back 6582996 6319544
writing back 7244604 6319548
writing back 6883332 6319552
writing back 7421940 6319556
writing back 6445668 6319560
writing back 7008396 6319564
writing back 7193004 6319568
writing back 5976732 6319572
writing back 7208340 6319576
writing back 7225068 6319580
writing back 7349796 6319584
writing back 7330404 6319588
writing back 3849132 6319592
writing back 6979740 6319596
writing back 6948468 6319600
writing back 7085196 6319604
writing back 7287804 6319608
writing back 6344532 6319612
writing back 7153140 6319616
writing back 7301868 6319620
writing back 7891596 6319624
writing back 6888204 6319628
writing back 6928932 6319632
writing back 7065540 6319636
writing back 7040268 6319640
writing back 7107996 6319644
writing back 7154604 6319648
writing back 6526332 6319652
writing back 7508940 6319656
writing back 7339668 6319660
writing back 6996396 6319664
writing back 7514004 6319668
writing back 7119732 6319672
writing back 7640340 6319676
writing back 7690068 6319680
writing back 7817796 6319684
writing back 9814404 6319688
writing back 294132 6319692
writing back 4585740 6319696
writing back 6492468 6319700
writing back 6589002 6319704
writing back 6575193 6319708
writing back 6687504 6319712
writing back 6723695 6319716
writing back 7425006 6319720
writing back 6949317 6319724
writing back 6973508 6319728
writing back 5787819 6319732
writing back 7363010 6319736
writing back 7186321 6319740
writing back 6550512 6319744
writing back 7224823 6319748
writing back 6838134 6319752
writing back 7427325 6319756
writing back 6316636 6319760
writing back 7010827 6319764
writing back 7161138 6319768
writing back 5965329 6319772
writing back 7184640 6319776
writing back 7295951 6319780
writing back 7382142 6319784
writing back 7465453 6319788
writing back 3739644 6319792
writing back 6823955 6319796
writing back 6886146 6319800
writing back 6993457 6319804
writing back 7257768 6319808
writing back 6262959 6319812
writing back 7121270 6319816
writing back 7278461 6319820
writing back 8016772 6319824
writing back 6861963 6319828
writing back 6905274 6319832
writing back 7064585 6319836
writing back 7251776 6319840
writing back 7103087 6319844
writing back 7078278 6319848
writing back 6440589 6319852
writing back 7409780 6319856
writing back 7340091 6319860
writing back 6915402 6319864
writing back 7565593 6319868
writing back 7055904 6319872
writing back 7714095 6319876
writing back 7770406 6319880
writing back 7902717 6319884
writing back 9854908 6319888
writing back 294219 6319892
writing back 4509410 6319896
writing back 6386721 6319900
writing back 7333608 6319904
writing back 7237782 6319908
writing back 7412076 6319912
writing back 7421250 6319916
writing back 8135544 6319920
writing back 7598718 6319924
writing back 7596012 6319928
writing back 6372186 6319932
writing back 8112480 6319936
writing back 7890774 6319940
writing back 7230948 6319944
writing back 7906242 6319948
writing back 7534416 6319952
writing back 8146710 6319956
writing back 7009884 6319960
writing back 7640178 6319964
writing back 7868352 6319968
writing back 6521646 6319972
writing back 7928820 6319976
writing back 7923114 6319980
writing back 8091408 6319984
writing back 8097582 6319988
writing back 4107876 6319992
writing back 7582050 6319996
writing back 7582344 6320000
writing back 7756518 6320004
writing back 7942812 6320008
writing back 6976986 6320012
writing back 7829280 6320016
writing back 8039574 6320020
writing back 8714748 6320024
writing back 7533042 6320028
writing back 7599216 6320032
writing back 7773510 6320036
writing back 7809684 6320040
writing back 7788978 6320044
writing back 7765152 6320048
writing back 7126446 6320052
writing back 8158620 6320056
writing back 8080914 6320060
writing back 7571208 6320064
writing back 8258382 6320068
writing back 7721676 6320072
writing back 8441850 6320076
writing back 8421144 6320080
writing back 8622318 6320084
writing back 10722612 6320088
writing back 321786 6320092
writing back 5065080 6320096
writing back 7057374 6320100
writing back 6609414 6320104
writing back 6619971 6320108
writing back 6684648 6320112
writing back 6775205 6320116
writing back 7290882 6320120
writing back 6941439 6320124
writing back 6960116 6320128
writing back 5786673 6320132
writing back 7380350 6320136
writing back 7221907 6320140
writing back 6646584 6320144
writing back 7171141 6320148
writing back 6862818 6320152
writing back 7446375 6320156
writing back 6312052 6320160
writing back 7066609 6320164
writing back 7181286 6320168
writing back 5991843 6320172
writing back 7175520 6320176
writing back 7281197 6320180
writing back 7379754 6320184
writing back 7457431 6320188
writing back 3791988 6320192
writing back 6864665 6320196
writing back 6951222 6320200
writing back 7040899 6320204
writing back 7317456 6320208
writing back 6269133 6320212
writing back 7163690 6320216
writing back 7255367 6320220
writing back 8035924 6320224
writing back 6875601 6320228
writing back 6973158 6320232
writing back 7150835 6320236
writing back 7224392 6320240
writing back 7100069 6320244
writing back 7105626 6320248
writing back 6474303 6320252
writing back 7437860 6320256
writing back 7380537 6320260
writing back 7034214 6320264
writing back 7546771 6320268
writing back 7151448 6320272
writing back 7702005 6320276
writing back 7812682 6320280
writing back 7951239 6320284
writing back 9867916 6320288
writing back 295473 6320292
writing back 4475150 6320296
writing back 6370707 6320300
writing back 2 6320304
writing back 3 6320308
info: Increasing stack size by one page.
info: Increasing stack size by one page.
info: Increasing stack size by one page.
Exiting @ tick 1031337500 because target called exit()
ppid = 12745

Memory attached at 7FBD3D760000
/home/tingyuan/Documents/PAAS_Project/PASS_V1.0
FPGA read:------------
         0          0         36         26
time1:                31570
time2:               129054
      1020       1140    7333608    7920138
time3:               160624
