gem5 Simulator System.  http://gem5.org
gem5 is copyrighted software; use the --copyright option for details.

gem5 compiled Sep 28 2017 00:56:49
gem5 started Sep 28 2017 01:01:22
gem5 executing on eelty, pid 6080
command line: ./build/X86/gem5.opt configs/for_bus/L2-fpga-2mm.py

Global frequency set at 1000000000000 ticks per second
Beginning simulation!
info: Entering event queue @ 0.  Starting simulation...
occupy and configure FPGA with bitstream 1
FpgaCPU--configuring
Memory attached at 7F768E537000
./2mm/obj_dir/Vour is configured on FPGA.
Memory attached at 7F768E537000
Reset FPGA @ tick 122176000
Reset FPGA @ tick 122220500
writing back 960 6299904
writing back 1020 6299908
writing back 1080 6299912
writing back 1080 6299916
writing back 960 6299920
writing back 960 6299924
writing back 1140 6299928
writing back 1080 6299932
writing back 1080 6299936
writing back 780 6299940
writing back 1140 6299944
writing back 960 6299948
writing back 1140 6299952
writing back 1140 6299956
writing back 600 6299960
writing back 1080 6299964
writing back 1140 6299968
writing back 960 6299972
writing back 1140 6299976
writing back 780 6299980
writing back 1080 6299984
writing back 1140 6299988
writing back 1140 6299992
writing back 960 6299996
writing back 1020 6300000
writing back 1140 6300004
writing back 1080 6300008
writing back 1200 6300012
writing back 1320 6300016
writing back 0 6300020
writing back 8620 6300024
writing back 9740 6300028
writing back 11160 6300032
writing back 10360 6300036
writing back 9260 6300040
writing back 9120 6300044
writing back 11500 6300048
writing back 10700 6300052
writing back 10200 6300056
writing back 7720 6300060
writing back 11240 6300064
writing back 9120 6300068
writing back 10780 6300072
writing back 10940 6300076
writing back 5400 6300080
writing back 10180 6300084
writing back 11300 6300088
writing back 9600 6300092
writing back 10840 6300096
writing back 7460 6300100
writing back 11160 6300104
writing back 10420 6300108
writing back 10580 6300112
writing back 9600 6300116
writing back 9160 6300120
writing back 10760 6300124
writing back 10200 6300128
writing back 11380 6300132
writing back 13460 6300136
writing back 0 6300140
writing back 10920 6300144
writing back 11340 6300148
writing back 14760 6300152
writing back 11400 6300156
writing back 9960 6300160
writing back 11520 6300164
writing back 11940 6300168
writing back 11040 6300172
writing back 11880 6300176
writing back 7860 6300180
writing back 12780 6300184
writing back 10560 6300188
writing back 11940 6300192
writing back 11700 6300196
writing back 6600 6300200
writing back 11520 6300204
writing back 11940 6300208
writing back 10560 6300212
writing back 11100 6300216
writing back 7740 6300220
writing back 11880 6300224
writing back 12180 6300228
writing back 11940 6300232
writing back 9600 6300236
writing back 10500 6300240
writing back 11820 6300244
writing back 9000 6300248
writing back 11880 6300252
writing back 12960 6300256
writing back 0 6300260
writing back 9220 6300264
writing back 9740 6300268
writing back 11160 6300272
writing back 9640 6300276
writing back 8660 6300280
writing back 9120 6300284
writing back 10780 6300288
writing back 10580 6300292
writing back 11160 6300296
writing back 7600 6300300
writing back 11120 6300304
writing back 9600 6300308
writing back 11500 6300312
writing back 11660 6300316
writing back 5400 6300320
writing back 10060 6300324
writing back 10580 6300328
writing back 9120 6300332
writing back 10960 6300336
writing back 7220 6300340
writing back 10200 6300344
writing back 11140 6300348
writing back 11300 6300352
writing back 9600 6300356
writing back 9040 6300360
writing back 12080 6300364
writing back 10200 6300368
writing back 11980 6300372
writing back 12860 6300376
writing back 0 6300380
writing back 9280 6300384
writing back 10460 6300388
writing back 11640 6300392
writing back 10120 6300396
writing back 8960 6300400
writing back 12480 6300404
writing back 11140 6300408
writing back 9800 6300412
writing back 10680 6300416
writing back 6940 6300420
writing back 10820 6300424
writing back 10560 6300428
writing back 11140 6300432
writing back 11060 6300436
writing back 5400 6300440
writing back 10360 6300444
writing back 10340 6300448
writing back 10560 6300452
writing back 10660 6300456
writing back 7100 6300460
writing back 10680 6300464
writing back 11620 6300468
writing back 10340 6300472
writing back 8640 6300476
writing back 9580 6300480
writing back 11300 6300484
writing back 9720 6300488
writing back 10960 6300492
writing back 12200 6300496
writing back 0 6300500
writing back 8060 6300504
writing back 8620 6300508
writing back 9480 6300512
writing back 9080 6300516
writing back 8860 6300520
writing back 8160 6300524
writing back 8540 6300528
writing back 9580 6300532
writing back 9480 6300536
writing back 6680 6300540
writing back 9640 6300544
writing back 8160 6300548
writing back 9740 6300552
writing back 9340 6300556
writing back 6600 6300560
writing back 9380 6300564
writing back 9940 6300568
writing back 8160 6300572
writing back 10040 6300576
writing back 6580 6300580
writing back 9480 6300584
writing back 9140 6300588
writing back 11140 6300592
writing back 8160 6300596
writing back 9320 6300600
writing back 9640 6300604
writing back 9480 6300608
writing back 10100 6300612
writing back 11620 6300616
writing back 0 6300620
writing back 9960 6300624
writing back 10620 6300628
writing back 11880 6300632
writing back 10920 6300636
writing back 9960 6300640
writing back 10560 6300644
writing back 10980 6300648
writing back 11520 6300652
writing back 14760 6300656
writing back 7620 6300660
writing back 11580 6300664
writing back 9600 6300668
writing back 12900 6300672
writing back 11700 6300676
writing back 6600 6300680
writing back 11520 6300684
writing back 10980 6300688
writing back 11520 6300692
writing back 12300 6300696
writing back 7260 6300700
writing back 9000 6300704
writing back 11700 6300708
writing back 12900 6300712
writing back 10560 6300716
writing back 10260 6300720
writing back 12300 6300724
writing back 11880 6300728
writing back 12600 6300732
writing back 13920 6300736
writing back 0 6300740
writing back 8900 6300744
writing back 10300 6300748
writing back 10200 6300752
writing back 10520 6300756
writing back 9460 6300760
writing back 9600 6300764
writing back 10700 6300768
writing back 10180 6300772
writing back 10200 6300776
writing back 7760 6300780
writing back 10960 6300784
writing back 9120 6300788
writing back 11180 6300792
writing back 11020 6300796
writing back 5400 6300800
writing back 10700 6300804
writing back 10900 6300808
writing back 9600 6300812
writing back 11120 6300816
writing back 8740 6300820
writing back 11160 6300824
writing back 11540 6300828
writing back 11380 6300832
writing back 9120 6300836
writing back 10400 6300840
writing back 11200 6300844
writing back 11160 6300848
writing back 11420 6300852
writing back 13180 6300856
writing back 0 6300860
writing back 8960 6300864
writing back 9820 6300868
writing back 10680 6300872
writing back 11000 6300876
writing back 8560 6300880
writing back 10560 6300884
writing back 11060 6300888
writing back 10600 6300892
writing back 9720 6300896
writing back 7100 6300900
writing back 10660 6300904
writing back 12480 6300908
writing back 10820 6300912
writing back 11620 6300916
writing back 5400 6300920
writing back 9800 6300924
writing back 10660 6300928
writing back 8640 6300932
writing back 10820 6300936
writing back 7420 6300940
writing back 11640 6300944
writing back 10820 6300948
writing back 10420 6300952
writing back 10560 6300956
writing back 9740 6300960
writing back 10420 6300964
writing back 10680 6300968
writing back 11600 6300972
writing back 12520 6300976
writing back 0 6300980
writing back 9100 6300984
writing back 9500 6300988
writing back 10200 6300992
writing back 10600 6300996
writing back 9260 6301000
writing back 9600 6301004
writing back 10780 6301008
writing back 10460 6301012
writing back 11160 6301016
writing back 7240 6301020
writing back 11240 6301024
writing back 9600 6301028
writing back 10300 6301032
writing back 10940 6301036
writing back 5400 6301040
writing back 10180 6301044
writing back 11780 6301048
writing back 9120 6301052
writing back 10840 6301056
writing back 7700 6301060
writing back 10200 6301064
writing back 10660 6301068
writing back 11300 6301072
writing back 9120 6301076
writing back 9880 6301080
writing back 10520 6301084
writing back 11160 6301088
writing back 11620 6301092
writing back 12980 6301096
writing back 0 6301100
writing back 5960 6301104
writing back 6220 6301108
writing back 7080 6301112
writing back 6680 6301116
writing back 6760 6301120
writing back 5760 6301124
writing back 6740 6301128
writing back 6880 6301132
writing back 7080 6301136
writing back 4580 6301140
writing back 6940 6301144
writing back 5760 6301148
writing back 6740 6301152
writing back 6340 6301156
writing back 6600 6301160
writing back 7280 6301164
writing back 7540 6301168
writing back 5760 6301172
writing back 7340 6301176
writing back 4780 6301180
writing back 7080 6301184
writing back 6740 6301188
writing back 7540 6301192
writing back 5760 6301196
writing back 7220 6301200
writing back 6940 6301204
writing back 7080 6301208
writing back 7400 6301212
writing back 8320 6301216
writing back 0 6301220
writing back 9220 6301224
writing back 9740 6301228
writing back 11160 6301232
writing back 10360 6301236
writing back 8660 6301240
writing back 9120 6301244
writing back 11500 6301248
writing back 10100 6301252
writing back 10200 6301256
writing back 7120 6301260
writing back 11840 6301264
writing back 9120 6301268
writing back 10780 6301272
writing back 12140 6301276
writing back 5400 6301280
writing back 9580 6301284
writing back 11300 6301288
writing back 9600 6301292
writing back 10240 6301296
writing back 7460 6301300
writing back 11160 6301304
writing back 11620 6301308
writing back 10580 6301312
writing back 9600 6301316
writing back 9760 6301320
writing back 11360 6301324
writing back 10200 6301328
writing back 11980 6301332
writing back 12860 6301336
writing back 0 6301340
writing back 8960 6301344
writing back 9820 6301348
writing back 10680 6301352
writing back 9560 6301356
writing back 8560 6301360
writing back 10560 6301364
writing back 10820 6301368
writing back 10360 6301372
writing back 11640 6301376
writing back 6860 6301380
writing back 10420 6301384
writing back 8640 6301388
writing back 11060 6301392
writing back 10660 6301396
writing back 5400 6301400
writing back 10760 6301404
writing back 10420 6301408
writing back 12480 6301412
writing back 11060 6301416
writing back 6940 6301420
writing back 9720 6301424
writing back 11060 6301428
writing back 10660 6301432
writing back 10560 6301436
writing back 9500 6301440
writing back 11860 6301444
writing back 10680 6301448
writing back 11600 6301452
writing back 12520 6301456
writing back 0 6301460
writing back 9420 6301464
writing back 10140 6301468
writing back 11160 6301472
writing back 10440 6301476
writing back 8460 6301480
writing back 9120 6301484
writing back 10380 6301488
writing back 10380 6301492
writing back 11160 6301496
writing back 6600 6301500
writing back 12120 6301504
writing back 9600 6301508
writing back 11100 6301512
writing back 10860 6301516
writing back 5400 6301520
writing back 10260 6301524
writing back 10980 6301528
writing back 9120 6301532
writing back 9960 6301536
writing back 6420 6301540
writing back 10200 6301544
writing back 10740 6301548
writing back 11700 6301552
writing back 9600 6301556
writing back 9240 6301560
writing back 10680 6301564
writing back 10200 6301568
writing back 10980 6301572
writing back 12660 6301576
writing back 0 6301580
writing back 9960 6301584
writing back 10620 6301588
writing back 11880 6301592
writing back 11640 6301596
writing back 9960 6301600
writing back 10560 6301604
writing back 12900 6301608
writing back 11040 6301612
writing back 9000 6301616
writing back 8340 6301620
writing back 12300 6301624
writing back 11520 6301628
writing back 10980 6301632
writing back 12180 6301636
writing back 6600 6301640
writing back 11040 6301644
writing back 12900 6301648
writing back 9600 6301652
writing back 11580 6301656
writing back 8700 6301660
writing back 14760 6301664
writing back 12180 6301668
writing back 10980 6301672
writing back 10560 6301676
writing back 10980 6301680
writing back 11580 6301684
writing back 11880 6301688
writing back 12600 6301692
writing back 13920 6301696
writing back 0 6301700
writing back 8260 6301704
writing back 9020 6301708
writing back 9480 6301712
writing back 9880 6301716
writing back 8660 6301720
writing back 8160 6301724
writing back 9340 6301728
writing back 10580 6301732
writing back 9480 6301736
writing back 6880 6301740
writing back 9440 6301744
writing back 8160 6301748
writing back 9340 6301752
writing back 9740 6301756
writing back 6600 6301760
writing back 9580 6301764
writing back 10340 6301768
writing back 8160 6301772
writing back 10240 6301776
writing back 6980 6301780
writing back 9480 6301784
writing back 8740 6301788
writing back 10340 6301792
writing back 8160 6301796
writing back 9520 6301800
writing back 9440 6301804
writing back 9480 6301808
writing back 10300 6301812
writing back 11420 6301816
writing back 0 6301820
writing back 8640 6301824
writing back 9180 6301828
writing back 9720 6301832
writing back 10440 6301836
writing back 8160 6301840
writing back 8640 6301844
writing back 10740 6301848
writing back 11160 6301852
writing back 10680 6301856
writing back 7020 6301860
writing back 10260 6301864
writing back 10560 6301868
writing back 10740 6301872
writing back 11220 6301876
writing back 5400 6301880
writing back 10200 6301884
writing back 10740 6301888
writing back 10560 6301892
writing back 11220 6301896
writing back 7260 6301900
writing back 10680 6301904
writing back 10260 6301908
writing back 10740 6301912
writing back 12480 6301916
writing back 9660 6301920
writing back 10980 6301924
writing back 11640 6301928
writing back 12240 6301932
writing back 12840 6301936
writing back 0 6301940
writing back 9100 6301944
writing back 9500 6301948
writing back 10200 6301952
writing back 10120 6301956
writing back 10460 6301960
writing back 9600 6301964
writing back 11500 6301968
writing back 9980 6301972
writing back 10200 6301976
writing back 7960 6301980
writing back 10760 6301984
writing back 9120 6301988
writing back 10780 6301992
writing back 11420 6301996
writing back 5400 6302000
writing back 9700 6302004
writing back 11300 6302008
writing back 9600 6302012
writing back 11320 6302016
writing back 7940 6302020
writing back 11160 6302024
writing back 11140 6302028
writing back 10580 6302032
writing back 9120 6302036
writing back 9400 6302040
writing back 11000 6302044
writing back 11160 6302048
writing back 11620 6302052
writing back 12980 6302056
writing back 0 6302060
writing back 9000 6302064
writing back 9900 6302068
writing back 9000 6302072
writing back 11160 6302076
writing back 9960 6302080
writing back 9600 6302084
writing back 11940 6302088
writing back 11520 6302092
writing back 11880 6302096
writing back 8100 6302100
writing back 11100 6302104
writing back 10560 6302108
writing back 11940 6302112
writing back 12180 6302116
writing back 6600 6302120
writing back 11040 6302124
writing back 11940 6302128
writing back 10560 6302132
writing back 12780 6302136
writing back 8220 6302140
writing back 11880 6302144
writing back 11700 6302148
writing back 11940 6302152
writing back 11520 6302156
writing back 10740 6302160
writing back 12060 6302164
writing back 14760 6302168
writing back 13320 6302172
writing back 14880 6302176
writing back 0 6302180
writing back 9700 6302184
writing back 10700 6302188
writing back 10200 6302192
writing back 10600 6302196
writing back 9860 6302200
writing back 9600 6302204
writing back 10780 6302208
writing back 11060 6302212
writing back 11160 6302216
writing back 7840 6302220
writing back 10640 6302224
writing back 9600 6302228
writing back 11500 6302232
writing back 10940 6302236
writing back 5400 6302240
writing back 10780 6302244
writing back 10580 6302248
writing back 9120 6302252
writing back 11440 6302256
writing back 7700 6302260
writing back 10200 6302264
writing back 10660 6302268
writing back 11300 6302272
writing back 9120 6302276
writing back 9280 6302280
writing back 11120 6302284
writing back 11160 6302288
writing back 11020 6302292
writing back 12380 6302296
writing back 0 6302300
writing back 1 6302304
writing back 1 6302308
writing back 1 6302312
writing back 1 6302316
writing back 1 6302320
writing back 1 6302324
writing back 1 6302328
writing back 1 6302332
writing back 1 6302336
writing back 1 6302340
writing back 1 6302344
writing back 1 6302348
writing back 1 6302352
writing back 1 6302356
writing back 1 6302360
writing back 1 6302364
writing back 1 6302368
writing back 1 6302372
writing back 1 6302376
writing back 1 6302380
writing back 1 6302384
writing back 1 6302388
writing back 1 6302392
writing back 1 6302396
writing back 1 6302400
writing back 1 6302404
writing back 1 6302408
writing back 1 6302412
writing back 1 6302416
writing back 1 6302420
writing back 1 6302424
writing back 1 6302428
writing back 1 6302432
writing back 1 6302436
writing back 1 6302440
writing back 1 6302444
writing back 1 6302448
writing back 1 6302452
writing back 1 6302456
writing back 1 6302460
writing back 1 6302464
writing back 2 6302468
writing back 3 6302472
writing back 4 6302476
writing back 5 6302480
writing back 6 6302484
writing back 7 6302488
writing back 8 6302492
writing back 9 6302496
writing back 10 6302500
writing back 11 6302504
writing back 12 6302508
writing back 13 6302512
writing back 14 6302516
writing back 15 6302520
writing back 16 6302524
writing back 17 6302528
writing back 18 6302532
writing back 19 6302536
writing back 0 6302540
writing back 1 6302544
writing back 2 6302548
writing back 3 6302552
writing back 4 6302556
writing back 5 6302560
writing back 6 6302564
writing back 7 6302568
writing back 8 6302572
writing back 9 6302576
writing back 10 6302580
writing back 11 6302584
writing back 12 6302588
writing back 13 6302592
writing back 14 6302596
writing back 15 6302600
writing back 16 6302604
writing back 17 6302608
writing back 18 6302612
writing back 19 6302616
writing back 0 6302620
writing back 1 6302624
writing back 3 6302628
writing back 5 6302632
writing back 7 6302636
writing back 9 6302640
writing back 11 6302644
writing back 13 6302648
writing back 15 6302652
writing back 17 6302656
writing back 19 6302660
writing back 1 6302664
writing back 3 6302668
writing back 5 6302672
writing back 7 6302676
writing back 9 6302680
writing back 11 6302684
writing back 13 6302688
writing back 15 6302692
writing back 17 6302696
writing back 19 6302700
writing back 1 6302704
writing back 3 6302708
writing back 5 6302712
writing back 7 6302716
writing back 9 6302720
writing back 11 6302724
writing back 13 6302728
writing back 15 6302732
writing back 17 6302736
writing back 19 6302740
writing back 1 6302744
writing back 3 6302748
writing back 5 6302752
writing back 7 6302756
writing back 9 6302760
writing back 11 6302764
writing back 13 6302768
writing back 15 6302772
writing back 17 6302776
writing back 19 6302780
writing back 1 6302784
writing back 4 6302788
writing back 7 6302792
writing back 10 6302796
writing back 13 6302800
writing back 16 6302804
writing back 19 6302808
writing back 2 6302812
writing back 5 6302816
writing back 8 6302820
writing back 11 6302824
writing back 14 6302828
writing back 17 6302832
writing back 0 6302836
writing back 3 6302840
writing back 6 6302844
writing back 9 6302848
writing back 12 6302852
writing back 15 6302856
writing back 18 6302860
writing back 1 6302864
writing back 4 6302868
writing back 7 6302872
writing back 10 6302876
writing back 13 6302880
writing back 16 6302884
writing back 19 6302888
writing back 2 6302892
writing back 5 6302896
writing back 8 6302900
writing back 11 6302904
writing back 14 6302908
writing back 17 6302912
writing back 0 6302916
writing back 3 6302920
writing back 6 6302924
writing back 9 6302928
writing back 12 6302932
writing back 15 6302936
writing back 18 6302940
writing back 1 6302944
writing back 5 6302948
writing back 9 6302952
writing back 13 6302956
writing back 17 6302960
writing back 1 6302964
writing back 5 6302968
writing back 9 6302972
writing back 13 6302976
writing back 17 6302980
writing back 1 6302984
writing back 5 6302988
writing back 9 6302992
writing back 13 6302996
writing back 17 6303000
writing back 1 6303004
writing back 5 6303008
writing back 9 6303012
writing back 13 6303016
writing back 17 6303020
writing back 1 6303024
writing back 5 6303028
writing back 9 6303032
writing back 13 6303036
writing back 17 6303040
writing back 1 6303044
writing back 5 6303048
writing back 9 6303052
writing back 13 6303056
writing back 17 6303060
writing back 1 6303064
writing back 5 6303068
writing back 9 6303072
writing back 13 6303076
writing back 17 6303080
writing back 1 6303084
writing back 5 6303088
writing back 9 6303092
writing back 13 6303096
writing back 17 6303100
writing back 1 6303104
writing back 6 6303108
writing back 11 6303112
writing back 16 6303116
writing back 1 6303120
writing back 6 6303124
writing back 11 6303128
writing back 16 6303132
writing back 1 6303136
writing back 6 6303140
writing back 11 6303144
writing back 16 6303148
writing back 1 6303152
writing back 6 6303156
writing back 11 6303160
writing back 16 6303164
writing back 1 6303168
writing back 6 6303172
writing back 11 6303176
writing back 16 6303180
writing back 1 6303184
writing back 6 6303188
writing back 11 6303192
writing back 16 6303196
writing back 1 6303200
writing back 6 6303204
writing back 11 6303208
writing back 16 6303212
writing back 1 6303216
writing back 6 6303220
writing back 11 6303224
writing back 16 6303228
writing back 1 6303232
writing back 6 6303236
writing back 11 6303240
writing back 16 6303244
writing back 1 6303248
writing back 6 6303252
writing back 11 6303256
writing back 16 6303260
writing back 1 6303264
writing back 7 6303268
writing back 13 6303272
writing back 19 6303276
writing back 5 6303280
writing back 11 6303284
writing back 17 6303288
writing back 3 6303292
writing back 9 6303296
writing back 15 6303300
writing back 1 6303304
writing back 7 6303308
writing back 13 6303312
writing back 19 6303316
writing back 5 6303320
writing back 11 6303324
writing back 17 6303328
writing back 3 6303332
writing back 9 6303336
writing back 15 6303340
writing back 1 6303344
writing back 7 6303348
writing back 13 6303352
writing back 19 6303356
writing back 5 6303360
writing back 11 6303364
writing back 17 6303368
writing back 3 6303372
writing back 9 6303376
writing back 15 6303380
writing back 1 6303384
writing back 7 6303388
writing back 13 6303392
writing back 19 6303396
writing back 5 6303400
writing back 11 6303404
writing back 17 6303408
writing back 3 6303412
writing back 9 6303416
writing back 15 6303420
writing back 1 6303424
writing back 8 6303428
writing back 15 6303432
writing back 2 6303436
writing back 9 6303440
writing back 16 6303444
writing back 3 6303448
writing back 10 6303452
writing back 17 6303456
writing back 4 6303460
writing back 11 6303464
writing back 18 6303468
writing back 5 6303472
writing back 12 6303476
writing back 19 6303480
writing back 6 6303484
writing back 13 6303488
writing back 0 6303492
writing back 7 6303496
writing back 14 6303500
writing back 1 6303504
writing back 8 6303508
writing back 15 6303512
writing back 2 6303516
writing back 9 6303520
writing back 16 6303524
writing back 3 6303528
writing back 10 6303532
writing back 17 6303536
writing back 4 6303540
writing back 11 6303544
writing back 18 6303548
writing back 5 6303552
writing back 12 6303556
writing back 19 6303560
writing back 6 6303564
writing back 13 6303568
writing back 0 6303572
writing back 7 6303576
writing back 14 6303580
writing back 1 6303584
writing back 9 6303588
writing back 17 6303592
writing back 5 6303596
writing back 13 6303600
writing back 1 6303604
writing back 9 6303608
writing back 17 6303612
writing back 5 6303616
writing back 13 6303620
writing back 1 6303624
writing back 9 6303628
writing back 17 6303632
writing back 5 6303636
writing back 13 6303640
writing back 1 6303644
writing back 9 6303648
writing back 17 6303652
writing back 5 6303656
writing back 13 6303660
writing back 1 6303664
writing back 9 6303668
writing back 17 6303672
writing back 5 6303676
writing back 13 6303680
writing back 1 6303684
writing back 9 6303688
writing back 17 6303692
writing back 5 6303696
writing back 13 6303700
writing back 1 6303704
writing back 9 6303708
writing back 17 6303712
writing back 5 6303716
writing back 13 6303720
writing back 1 6303724
writing back 9 6303728
writing back 17 6303732
writing back 5 6303736
writing back 13 6303740
writing back 1 6303744
writing back 10 6303748
writing back 19 6303752
writing back 8 6303756
writing back 17 6303760
writing back 6 6303764
writing back 15 6303768
writing back 4 6303772
writing back 13 6303776
writing back 2 6303780
writing back 11 6303784
writing back 0 6303788
writing back 9 6303792
writing back 18 6303796
writing back 7 6303800
writing back 16 6303804
writing back 5 6303808
writing back 14 6303812
writing back 3 6303816
writing back 12 6303820
writing back 1 6303824
writing back 10 6303828
writing back 19 6303832
writing back 8 6303836
writing back 17 6303840
writing back 6 6303844
writing back 15 6303848
writing back 4 6303852
writing back 13 6303856
writing back 2 6303860
writing back 11 6303864
writing back 0 6303868
writing back 9 6303872
writing back 18 6303876
writing back 7 6303880
writing back 16 6303884
writing back 5 6303888
writing back 14 6303892
writing back 3 6303896
writing back 12 6303900
writing back 1 6303904
writing back 11 6303908
writing back 1 6303912
writing back 11 6303916
writing back 1 6303920
writing back 11 6303924
writing back 1 6303928
writing back 11 6303932
writing back 1 6303936
writing back 11 6303940
writing back 1 6303944
writing back 11 6303948
writing back 1 6303952
writing back 11 6303956
writing back 1 6303960
writing back 11 6303964
writing back 1 6303968
writing back 11 6303972
writing back 1 6303976
writing back 11 6303980
writing back 1 6303984
writing back 11 6303988
writing back 1 6303992
writing back 11 6303996
writing back 1 6304000
writing back 11 6304004
writing back 1 6304008
writing back 11 6304012
writing back 1 6304016
writing back 11 6304020
writing back 1 6304024
writing back 11 6304028
writing back 1 6304032
writing back 11 6304036
writing back 1 6304040
writing back 11 6304044
writing back 1 6304048
writing back 11 6304052
writing back 1 6304056
writing back 11 6304060
writing back 1 6304064
writing back 12 6304068
writing back 3 6304072
writing back 14 6304076
writing back 5 6304080
writing back 16 6304084
writing back 7 6304088
writing back 18 6304092
writing back 9 6304096
writing back 0 6304100
writing back 11 6304104
writing back 2 6304108
writing back 13 6304112
writing back 4 6304116
writing back 15 6304120
writing back 6 6304124
writing back 17 6304128
writing back 8 6304132
writing back 19 6304136
writing back 10 6304140
writing back 1 6304144
writing back 12 6304148
writing back 3 6304152
writing back 14 6304156
writing back 5 6304160
writing back 16 6304164
writing back 7 6304168
writing back 18 6304172
writing back 9 6304176
writing back 0 6304180
writing back 11 6304184
writing back 2 6304188
writing back 13 6304192
writing back 4 6304196
writing back 15 6304200
writing back 6 6304204
writing back 17 6304208
writing back 8 6304212
writing back 19 6304216
writing back 10 6304220
writing back 1 6304224
writing back 13 6304228
writing back 5 6304232
writing back 17 6304236
writing back 9 6304240
writing back 1 6304244
writing back 13 6304248
writing back 5 6304252
writing back 17 6304256
writing back 9 6304260
writing back 1 6304264
writing back 13 6304268
writing back 5 6304272
writing back 17 6304276
writing back 9 6304280
writing back 1 6304284
writing back 13 6304288
writing back 5 6304292
writing back 17 6304296
writing back 9 6304300
writing back 1 6304304
writing back 13 6304308
writing back 5 6304312
writing back 17 6304316
writing back 9 6304320
writing back 1 6304324
writing back 13 6304328
writing back 5 6304332
writing back 17 6304336
writing back 9 6304340
writing back 1 6304344
writing back 13 6304348
writing back 5 6304352
writing back 17 6304356
writing back 9 6304360
writing back 1 6304364
writing back 13 6304368
writing back 5 6304372
writing back 17 6304376
writing back 9 6304380
writing back 1 6304384
writing back 14 6304388
requester 4 is not a holder :( SF value 0.1
writing back 7 6304392
writing back 0 6304396
writing back 13 6304400
writing back 6 6304404
writing back 19 6304408
writing back 12 6304412
writing back 5 6304416
writing back 18 6304420
writing back 11 6304424
writing back 4 6304428
writing back 17 6304432
writing back 10 6304436
writing back 3 6304440
writing back 16 6304444
writing back 9 6304448
writing back 2 6304452
writing back 15 6304456
writing back 8 6304460
writing back 1 6304464
writing back 14 6304468
writing back 7 6304472
writing back 0 6304476
writing back 13 6304480
writing back 6 6304484
writing back 19 6304488
writing back 12 6304492
writing back 5 6304496
writing back 18 6304500
writing back 11 6304504
writing back 4 6304508
writing back 17 6304512
writing back 10 6304516
writing back 3 6304520
writing back 16 6304524
writing back 9 6304528
writing back 2 6304532
writing back 15 6304536
writing back 8 6304540
writing back 1 6304544
writing back 15 6304548
writing back 9 6304552
writing back 3 6304556
writing back 17 6304560
writing back 11 6304564
writing back 5 6304568
writing back 19 6304572
writing back 13 6304576
writing back 7 6304580
writing back 1 6304584
writing back 15 6304588
writing back 9 6304592
writing back 3 6304596
writing back 17 6304600
writing back 11 6304604
writing back 5 6304608
writing back 19 6304612
writing back 13 6304616
writing back 7 6304620
writing back 1 6304624
writing back 15 6304628
writing back 9 6304632
writing back 3 6304636
writing back 17 6304640
writing back 11 6304644
writing back 5 6304648
writing back 19 6304652
writing back 13 6304656
writing back 7 6304660
writing back 1 6304664
writing back 15 6304668
writing back 9 6304672
writing back 3 6304676
writing back 17 6304680
writing back 11 6304684
writing back 5 6304688
writing back 19 6304692
writing back 13 6304696
writing back 7 6304700
writing back 1 6304704
writing back 16 6304708
writing back 11 6304712
writing back 6 6304716
writing back 1 6304720
writing back 16 6304724
writing back 11 6304728
writing back 6 6304732
writing back 1 6304736
writing back 16 6304740
writing back 11 6304744
writing back 6 6304748
writing back 1 6304752
writing back 16 6304756
writing back 11 6304760
writing back 6 6304764
writing back 1 6304768
writing back 16 6304772
writing back 11 6304776
writing back 6 6304780
writing back 1 6304784
writing back 16 6304788
writing back 11 6304792
writing back 6 6304796
writing back 1 6304800
writing back 16 6304804
writing back 11 6304808
writing back 6 6304812
writing back 1 6304816
writing back 16 6304820
writing back 11 6304824
writing back 6 6304828
writing back 1 6304832
writing back 16 6304836
writing back 11 6304840
writing back 6 6304844
writing back 1 6304848
writing back 16 6304852
writing back 11 6304856
writing back 6 6304860
writing back 1 6304864
writing back 17 6304868
writing back 13 6304872
writing back 9 6304876
writing back 5 6304880
writing back 1 6304884
writing back 17 6304888
writing back 13 6304892
writing back 9 6304896
writing back 5 6304900
writing back 1 6304904
writing back 17 6304908
writing back 13 6304912
writing back 9 6304916
writing back 5 6304920
writing back 1 6304924
writing back 17 6304928
writing back 13 6304932
writing back 9 6304936
writing back 5 6304940
writing back 1 6304944
writing back 17 6304948
writing back 13 6304952
writing back 9 6304956
writing back 5 6304960
writing back 1 6304964
writing back 17 6304968
writing back 13 6304972
writing back 9 6304976
writing back 5 6304980
writing back 1 6304984
writing back 17 6304988
writing back 13 6304992
writing back 9 6304996
writing back 5 6305000
writing back 1 6305004
writing back 17 6305008
writing back 13 6305012
writing back 9 6305016
writing back 5 6305020
writing back 1 6305024
writing back 18 6305028
writing back 15 6305032
writing back 12 6305036
writing back 9 6305040
writing back 6 6305044
writing back 3 6305048
writing back 0 6305052
writing back 17 6305056
writing back 14 6305060
writing back 11 6305064
writing back 8 6305068
writing back 5 6305072
writing back 2 6305076
writing back 19 6305080
writing back 16 6305084
writing back 13 6305088
writing back 10 6305092
writing back 7 6305096
writing back 4 6305100
writing back 1 6305104
writing back 18 6305108
writing back 15 6305112
writing back 12 6305116
writing back 9 6305120
writing back 6 6305124
writing back 3 6305128
writing back 0 6305132
writing back 17 6305136
writing back 14 6305140
writing back 11 6305144
writing back 8 6305148
writing back 5 6305152
writing back 2 6305156
writing back 19 6305160
writing back 16 6305164
writing back 13 6305168
writing back 10 6305172
writing back 7 6305176
writing back 4 6305180
writing back 1 6305184
writing back 19 6305188
writing back 17 6305192
writing back 15 6305196
writing back 13 6305200
writing back 11 6305204
writing back 9 6305208
writing back 7 6305212
writing back 5 6305216
writing back 3 6305220
writing back 1 6305224
writing back 19 6305228
writing back 17 6305232
writing back 15 6305236
writing back 13 6305240
writing back 11 6305244
writing back 9 6305248
writing back 7 6305252
writing back 5 6305256
writing back 3 6305260
writing back 1 6305264
writing back 19 6305268
writing back 17 6305272
writing back 15 6305276
writing back 13 6305280
writing back 11 6305284
writing back 9 6305288
writing back 7 6305292
writing back 5 6305296
writing back 3 6305300
writing back 1 6305304
writing back 19 6305308
writing back 17 6305312
writing back 15 6305316
writing back 13 6305320
writing back 11 6305324
writing back 9 6305328
writing back 7 6305332
writing back 5 6305336
writing back 3 6305340
writing back 1 6305344
writing back 0 6305348
writing back 19 6305352
writing back 18 6305356
writing back 17 6305360
writing back 16 6305364
writing back 15 6305368
writing back 14 6305372
writing back 13 6305376
writing back 12 6305380
writing back 11 6305384
writing back 10 6305388
writing back 9 6305392
writing back 8 6305396
writing back 7 6305400
writing back 6 6305404
writing back 5 6305408
writing back 4 6305412
writing back 3 6305416
writing back 2 6305420
writing back 1 6305424
writing back 0 6305428
writing back 19 6305432
writing back 18 6305436
writing back 17 6305440
writing back 16 6305444
writing back 15 6305448
writing back 14 6305452
writing back 13 6305456
writing back 12 6305460
writing back 11 6305464
writing back 10 6305468
writing back 9 6305472
writing back 8 6305476
writing back 7 6305480
writing back 6 6305484
writing back 5 6305488
writing back 4 6305492
writing back 3 6305496
writing back 2 6305500
writing back 0 6305504
writing back 0 6305508
writing back 0 6305512
writing back 0 6305516
writing back 0 6305520
writing back 0 6305524
writing back 0 6305528
writing back 0 6305532
writing back 0 6305536
writing back 0 6305540
writing back 0 6305544
writing back 0 6305548
writing back 0 6305552
writing back 0 6305556
writing back 0 6305560
writing back 0 6305564
writing back 0 6305568
writing back 0 6305572
writing back 0 6305576
writing back 0 6305580
writing back 0 6305584
writing back 0 6305588
writing back 0 6305592
writing back 0 6305596
writing back 0 6305600
writing back 0 6305604
writing back 0 6305608
writing back 0 6305612
writing back 0 6305616
writing back 0 6305620
writing back 1 6305624
writing back 2 6305628
writing back 3 6305632
writing back 4 6305636
writing back 5 6305640
writing back 6 6305644
writing back 7 6305648
writing back 8 6305652
writing back 9 6305656
writing back 10 6305660
writing back 11 6305664
writing back 12 6305668
writing back 13 6305672
writing back 14 6305676
writing back 15 6305680
writing back 16 6305684
writing back 17 6305688
writing back 18 6305692
writing back 19 6305696
writing back 20 6305700
writing back 21 6305704
writing back 22 6305708
writing back 23 6305712
writing back 24 6305716
writing back 25 6305720
writing back 26 6305724
writing back 27 6305728
writing back 28 6305732
writing back 29 6305736
writing back 0 6305740
writing back 2 6305744
writing back 4 6305748
writing back 6 6305752
writing back 8 6305756
writing back 10 6305760
writing back 12 6305764
writing back 14 6305768
writing back 16 6305772
writing back 18 6305776
writing back 20 6305780
writing back 22 6305784
writing back 24 6305788
writing back 26 6305792
writing back 28 6305796
writing back 0 6305800
writing back 2 6305804
writing back 4 6305808
writing back 6 6305812
writing back 8 6305816
writing back 10 6305820
writing back 12 6305824
writing back 14 6305828
writing back 16 6305832
writing back 18 6305836
writing back 20 6305840
writing back 22 6305844
writing back 24 6305848
writing back 26 6305852
writing back 28 6305856
writing back 0 6305860
writing back 3 6305864
writing back 6 6305868
writing back 9 6305872
writing back 12 6305876
writing back 15 6305880
writing back 18 6305884
writing back 21 6305888
writing back 24 6305892
writing back 27 6305896
writing back 0 6305900
writing back 3 6305904
writing back 6 6305908
writing back 9 6305912
writing back 12 6305916
writing back 15 6305920
writing back 18 6305924
writing back 21 6305928
writing back 24 6305932
writing back 27 6305936
writing back 0 6305940
writing back 3 6305944
writing back 6 6305948
writing back 9 6305952
writing back 12 6305956
writing back 15 6305960
writing back 18 6305964
writing back 21 6305968
writing back 24 6305972
writing back 27 6305976
writing back 0 6305980
writing back 4 6305984
writing back 8 6305988
writing back 12 6305992
writing back 16 6305996
writing back 20 6306000
writing back 24 6306004
writing back 28 6306008
writing back 2 6306012
writing back 6 6306016
writing back 10 6306020
writing back 14 6306024
writing back 18 6306028
writing back 22 6306032
writing back 26 6306036
writing back 0 6306040
writing back 4 6306044
writing back 8 6306048
writing back 12 6306052
writing back 16 6306056
writing back 20 6306060
writing back 24 6306064
writing back 28 6306068
writing back 2 6306072
writing back 6 6306076
writing back 10 6306080
writing back 14 6306084
writing back 18 6306088
writing back 22 6306092
writing back 26 6306096
writing back 0 6306100
writing back 5 6306104
writing back 10 6306108
writing back 15 6306112
writing back 20 6306116
writing back 25 6306120
writing back 0 6306124
writing back 5 6306128
writing back 10 6306132
writing back 15 6306136
writing back 20 6306140
writing back 25 6306144
writing back 0 6306148
writing back 5 6306152
writing back 10 6306156
writing back 15 6306160
writing back 20 6306164
writing back 25 6306168
writing back 0 6306172
writing back 5 6306176
writing back 10 6306180
writing back 15 6306184
writing back 20 6306188
writing back 25 6306192
writing back 0 6306196
writing back 5 6306200
writing back 10 6306204
writing back 15 6306208
writing back 20 6306212
writing back 25 6306216
writing back 0 6306220
writing back 6 6306224
writing back 12 6306228
writing back 18 6306232
writing back 24 6306236
writing back 0 6306240
writing back 6 6306244
writing back 12 6306248
writing back 18 6306252
writing back 24 6306256
writing back 0 6306260
writing back 6 6306264
writing back 12 6306268
writing back 18 6306272
writing back 24 6306276
writing back 0 6306280
writing back 6 6306284
writing back 12 6306288
writing back 18 6306292
writing back 24 6306296
writing back 0 6306300
writing back 6 6306304
writing back 12 6306308
writing back 18 6306312
writing back 24 6306316
writing back 0 6306320
writing back 6 6306324
writing back 12 6306328
writing back 18 6306332
writing back 24 6306336
writing back 0 6306340
writing back 7 6306344
writing back 14 6306348
writing back 21 6306352
writing back 28 6306356
writing back 5 6306360
writing back 12 6306364
writing back 19 6306368
writing back 26 6306372
writing back 3 6306376
writing back 10 6306380
writing back 17 6306384
writing back 24 6306388
writing back 1 6306392
writing back 8 6306396
writing back 15 6306400
writing back 22 6306404
writing back 29 6306408
writing back 6 6306412
writing back 13 6306416
writing back 20 6306420
writing back 27 6306424
writing back 4 6306428
writing back 11 6306432
writing back 18 6306436
writing back 25 6306440
writing back 2 6306444
writing back 9 6306448
writing back 16 6306452
writing back 23 6306456
writing back 0 6306460
writing back 8 6306464
writing back 16 6306468
writing back 24 6306472
writing back 2 6306476
writing back 10 6306480
writing back 18 6306484
writing back 26 6306488
writing back 4 6306492
writing back 12 6306496
writing back 20 6306500
writing back 28 6306504
writing back 6 6306508
writing back 14 6306512
writing back 22 6306516
writing back 0 6306520
writing back 8 6306524
writing back 16 6306528
writing back 24 6306532
writing back 2 6306536
writing back 10 6306540
writing back 18 6306544
writing back 26 6306548
writing back 4 6306552
writing back 12 6306556
writing back 20 6306560
writing back 28 6306564
writing back 6 6306568
writing back 14 6306572
writing back 22 6306576
writing back 0 6306580
writing back 9 6306584
writing back 18 6306588
writing back 27 6306592
writing back 6 6306596
writing back 15 6306600
writing back 24 6306604
writing back 3 6306608
writing back 12 6306612
writing back 21 6306616
writing back 0 6306620
writing back 9 6306624
writing back 18 6306628
writing back 27 6306632
writing back 6 6306636
writing back 15 6306640
writing back 24 6306644
writing back 3 6306648
writing back 12 6306652
writing back 21 6306656
writing back 0 6306660
writing back 9 6306664
writing back 18 6306668
writing back 27 6306672
writing back 6 6306676
writing back 15 6306680
writing back 24 6306684
writing back 3 6306688
writing back 12 6306692
writing back 21 6306696
writing back 0 6306700
writing back 10 6306704
writing back 20 6306708
writing back 0 6306712
writing back 10 6306716
writing back 20 6306720
writing back 0 6306724
writing back 10 6306728
writing back 20 6306732
writing back 0 6306736
writing back 10 6306740
writing back 20 6306744
writing back 0 6306748
writing back 10 6306752
writing back 20 6306756
writing back 0 6306760
writing back 10 6306764
writing back 20 6306768
writing back 0 6306772
writing back 10 6306776
writing back 20 6306780
writing back 0 6306784
writing back 10 6306788
writing back 20 6306792
writing back 0 6306796
writing back 10 6306800
writing back 20 6306804
writing back 0 6306808
writing back 10 6306812
writing back 20 6306816
writing back 0 6306820
writing back 11 6306824
writing back 22 6306828
writing back 3 6306832
writing back 14 6306836
writing back 25 6306840
writing back 6 6306844
writing back 17 6306848
writing back 28 6306852
writing back 9 6306856
writing back 20 6306860
writing back 1 6306864
writing back 12 6306868
writing back 23 6306872
writing back 4 6306876
writing back 15 6306880
writing back 26 6306884
writing back 7 6306888
writing back 18 6306892
writing back 29 6306896
writing back 10 6306900
writing back 21 6306904
writing back 2 6306908
writing back 13 6306912
writing back 24 6306916
writing back 5 6306920
writing back 16 6306924
writing back 27 6306928
writing back 8 6306932
writing back 19 6306936
writing back 0 6306940
writing back 12 6306944
writing back 24 6306948
writing back 6 6306952
writing back 18 6306956
writing back 0 6306960
writing back 12 6306964
writing back 24 6306968
writing back 6 6306972
writing back 18 6306976
writing back 0 6306980
writing back 12 6306984
writing back 24 6306988
writing back 6 6306992
writing back 18 6306996
writing back 0 6307000
writing back 12 6307004
writing back 24 6307008
writing back 6 6307012
writing back 18 6307016
writing back 0 6307020
writing back 12 6307024
writing back 24 6307028
writing back 6 6307032
writing back 18 6307036
writing back 0 6307040
writing back 12 6307044
writing back 24 6307048
writing back 6 6307052
writing back 18 6307056
writing back 0 6307060
writing back 13 6307064
writing back 26 6307068
writing back 9 6307072
writing back 22 6307076
writing back 5 6307080
writing back 18 6307084
writing back 1 6307088
writing back 14 6307092
writing back 27 6307096
writing back 10 6307100
writing back 23 6307104
writing back 6 6307108
writing back 19 6307112
writing back 2 6307116
writing back 15 6307120
writing back 28 6307124
writing back 11 6307128
writing back 24 6307132
writing back 7 6307136
writing back 20 6307140
writing back 3 6307144
writing back 16 6307148
writing back 29 6307152
writing back 12 6307156
writing back 25 6307160
writing back 8 6307164
writing back 21 6307168
writing back 4 6307172
writing back 17 6307176
writing back 0 6307180
writing back 14 6307184
writing back 28 6307188
writing back 12 6307192
writing back 26 6307196
writing back 10 6307200
writing back 24 6307204
writing back 8 6307208
writing back 22 6307212
writing back 6 6307216
writing back 20 6307220
writing back 4 6307224
writing back 18 6307228
writing back 2 6307232
writing back 16 6307236
writing back 0 6307240
writing back 14 6307244
writing back 28 6307248
writing back 12 6307252
writing back 26 6307256
writing back 10 6307260
writing back 24 6307264
writing back 8 6307268
writing back 22 6307272
writing back 6 6307276
writing back 20 6307280
writing back 4 6307284
writing back 18 6307288
writing back 2 6307292
writing back 16 6307296
writing back 0 6307300
writing back 15 6307304
writing back 0 6307308
writing back 15 6307312
writing back 0 6307316
writing back 15 6307320
writing back 0 6307324
writing back 15 6307328
writing back 0 6307332
writing back 15 6307336
writing back 0 6307340
writing back 15 6307344
writing back 0 6307348
writing back 15 6307352
writing back 0 6307356
writing back 15 6307360
writing back 0 6307364
writing back 15 6307368
writing back 0 6307372
writing back 15 6307376
writing back 0 6307380
writing back 15 6307384
writing back 0 6307388
writing back 15 6307392
writing back 0 6307396
writing back 15 6307400
writing back 0 6307404
writing back 15 6307408
writing back 0 6307412
writing back 15 6307416
writing back 0 6307420
writing back 16 6307424
writing back 2 6307428
writing back 18 6307432
writing back 4 6307436
writing back 20 6307440
writing back 6 6307444
writing back 22 6307448
writing back 8 6307452
writing back 24 6307456
writing back 10 6307460
writing back 26 6307464
writing back 12 6307468
writing back 28 6307472
writing back 14 6307476
writing back 0 6307480
writing back 16 6307484
writing back 2 6307488
writing back 18 6307492
writing back 4 6307496
writing back 20 6307500
writing back 6 6307504
writing back 22 6307508
writing back 8 6307512
writing back 24 6307516
writing back 10 6307520
writing back 26 6307524
writing back 12 6307528
writing back 28 6307532
writing back 14 6307536
writing back 0 6307540
writing back 17 6307544
writing back 4 6307548
writing back 21 6307552
writing back 8 6307556
writing back 25 6307560
writing back 12 6307564
writing back 29 6307568
writing back 16 6307572
writing back 3 6307576
writing back 20 6307580
writing back 7 6307584
writing back 24 6307588
writing back 11 6307592
writing back 28 6307596
writing back 15 6307600
writing back 2 6307604
writing back 19 6307608
writing back 6 6307612
writing back 23 6307616
writing back 10 6307620
writing back 27 6307624
writing back 14 6307628
writing back 1 6307632
writing back 18 6307636
writing back 5 6307640
writing back 22 6307644
writing back 9 6307648
writing back 26 6307652
writing back 13 6307656
writing back 0 6307660
writing back 18 6307664
writing back 6 6307668
writing back 24 6307672
writing back 12 6307676
writing back 0 6307680
writing back 18 6307684
writing back 6 6307688
writing back 24 6307692
writing back 12 6307696
writing back 0 6307700
writing back 18 6307704
writing back 6 6307708
writing back 24 6307712
writing back 12 6307716
writing back 0 6307720
writing back 18 6307724
writing back 6 6307728
writing back 24 6307732
writing back 12 6307736
writing back 0 6307740
writing back 18 6307744
writing back 6 6307748
writing back 24 6307752
writing back 12 6307756
writing back 0 6307760
writing back 18 6307764
writing back 6 6307768
writing back 24 6307772
writing back 12 6307776
writing back 0 6307780
writing back 19 6307784
writing back 8 6307788
writing back 27 6307792
writing back 16 6307796
writing back 5 6307800
writing back 24 6307804
writing back 13 6307808
writing back 2 6307812
writing back 21 6307816
writing back 10 6307820
writing back 29 6307824
writing back 18 6307828
writing back 7 6307832
writing back 26 6307836
writing back 15 6307840
writing back 4 6307844
writing back 23 6307848
writing back 12 6307852
writing back 1 6307856
writing back 20 6307860
writing back 9 6307864
writing back 28 6307868
writing back 17 6307872
writing back 6 6307876
writing back 25 6307880
writing back 14 6307884
writing back 3 6307888
writing back 22 6307892
writing back 11 6307896
writing back 0 6307900
writing back 20 6307904
writing back 10 6307908
writing back 0 6307912
writing back 20 6307916
writing back 10 6307920
writing back 0 6307924
writing back 20 6307928
writing back 10 6307932
writing back 0 6307936
writing back 20 6307940
writing back 10 6307944
writing back 0 6307948
writing back 20 6307952
writing back 10 6307956
writing back 0 6307960
writing back 20 6307964
writing back 10 6307968
writing back 0 6307972
writing back 20 6307976
writing back 10 6307980
writing back 0 6307984
writing back 20 6307988
writing back 10 6307992
writing back 0 6307996
writing back 20 6308000
writing back 10 6308004
writing back 0 6308008
writing back 20 6308012
writing back 10 6308016
writing back 0 6308020
writing back 21 6308024
writing back 12 6308028
writing back 3 6308032
writing back 24 6308036
writing back 15 6308040
writing back 6 6308044
writing back 27 6308048
writing back 18 6308052
writing back 9 6308056
writing back 0 6308060
writing back 21 6308064
writing back 12 6308068
writing back 3 6308072
writing back 24 6308076
writing back 15 6308080
writing back 6 6308084
writing back 27 6308088
writing back 18 6308092
writing back 9 6308096
writing back 0 6308100
writing back 21 6308104
writing back 12 6308108
writing back 3 6308112
writing back 24 6308116
writing back 15 6308120
writing back 6 6308124
writing back 27 6308128
writing back 18 6308132
writing back 9 6308136
writing back 0 6308140
writing back 22 6308144
writing back 14 6308148
writing back 6 6308152
writing back 28 6308156
writing back 20 6308160
writing back 12 6308164
writing back 4 6308168
writing back 26 6308172
writing back 18 6308176
writing back 10 6308180
writing back 2 6308184
writing back 24 6308188
writing back 16 6308192
writing back 8 6308196
writing back 0 6308200
writing back 22 6308204
writing back 14 6308208
writing back 6 6308212
writing back 28 6308216
writing back 20 6308220
writing back 12 6308224
writing back 4 6308228
writing back 26 6308232
writing back 18 6308236
writing back 10 6308240
writing back 2 6308244
writing back 24 6308248
writing back 16 6308252
writing back 8 6308256
writing back 0 6308260
writing back 23 6308264
writing back 16 6308268
writing back 9 6308272
writing back 2 6308276
writing back 25 6308280
writing back 18 6308284
writing back 11 6308288
writing back 4 6308292
writing back 27 6308296
writing back 20 6308300
writing back 13 6308304
writing back 6 6308308
writing back 29 6308312
writing back 22 6308316
writing back 15 6308320
writing back 8 6308324
writing back 1 6308328
writing back 24 6308332
writing back 17 6308336
writing back 10 6308340
writing back 3 6308344
writing back 26 6308348
writing back 19 6308352
writing back 12 6308356
writing back 5 6308360
writing back 28 6308364
writing back 21 6308368
writing back 14 6308372
writing back 7 6308376
writing back 0 6308380
writing back 24 6308384
writing back 18 6308388
writing back 12 6308392
writing back 6 6308396
writing back 0 6308400
writing back 24 6308404
writing back 18 6308408
writing back 12 6308412
writing back 6 6308416
writing back 0 6308420
writing back 24 6308424
writing back 18 6308428
writing back 12 6308432
writing back 6 6308436
writing back 0 6308440
writing back 24 6308444
writing back 18 6308448
writing back 12 6308452
writing back 6 6308456
writing back 0 6308460
writing back 24 6308464
writing back 18 6308468
writing back 12 6308472
writing back 6 6308476
writing back 0 6308480
writing back 24 6308484
writing back 18 6308488
writing back 12 6308492
writing back 6 6308496
writing back 0 6308500
writing back 25 6308504
writing back 20 6308508
writing back 15 6308512
writing back 10 6308516
writing back 5 6308520
writing back 0 6308524
writing back 25 6308528
writing back 20 6308532
writing back 15 6308536
writing back 10 6308540
writing back 5 6308544
writing back 0 6308548
writing back 25 6308552
writing back 20 6308556
writing back 15 6308560
writing back 10 6308564
writing back 5 6308568
writing back 0 6308572
writing back 25 6308576
writing back 20 6308580
writing back 15 6308584
writing back 10 6308588
writing back 5 6308592
writing back 0 6308596
writing back 25 6308600
writing back 20 6308604
writing back 15 6308608
writing back 10 6308612
writing back 5 6308616
writing back 0 6308620
writing back 26 6308624
writing back 22 6308628
writing back 18 6308632
writing back 14 6308636
writing back 10 6308640
writing back 6 6308644
writing back 2 6308648
writing back 28 6308652
writing back 24 6308656
writing back 20 6308660
writing back 16 6308664
writing back 12 6308668
writing back 8 6308672
writing back 4 6308676
writing back 0 6308680
writing back 26 6308684
writing back 22 6308688
writing back 18 6308692
writing back 14 6308696
writing back 10 6308700
writing back 6 6308704
writing back 2 6308708
writing back 28 6308712
writing back 24 6308716
writing back 20 6308720
writing back 16 6308724
writing back 12 6308728
writing back 8 6308732
writing back 4 6308736
writing back 0 6308740
writing back 27 6308744
writing back 24 6308748
writing back 21 6308752
writing back 18 6308756
writing back 15 6308760
writing back 12 6308764
writing back 9 6308768
writing back 6 6308772
writing back 3 6308776
writing back 0 6308780
writing back 27 6308784
writing back 24 6308788
writing back 21 6308792
writing back 18 6308796
writing back 15 6308800
writing back 12 6308804
writing back 9 6308808
writing back 6 6308812
writing back 3 6308816
writing back 0 6308820
writing back 27 6308824
writing back 24 6308828
writing back 21 6308832
writing back 18 6308836
writing back 15 6308840
writing back 12 6308844
writing back 9 6308848
writing back 6 6308852
writing back 3 6308856
writing back 0 6308860
writing back 28 6308864
writing back 26 6308868
writing back 24 6308872
writing back 22 6308876
writing back 20 6308880
writing back 18 6308884
writing back 16 6308888
writing back 14 6308892
writing back 12 6308896
writing back 10 6308900
writing back 8 6308904
writing back 6 6308908
writing back 4 6308912
writing back 2 6308916
writing back 0 6308920
writing back 28 6308924
writing back 26 6308928
writing back 24 6308932
writing back 22 6308936
writing back 20 6308940
writing back 18 6308944
writing back 16 6308948
writing back 14 6308952
writing back 12 6308956
writing back 10 6308960
writing back 8 6308964
writing back 6 6308968
writing back 4 6308972
writing back 2 6308976
writing back 0 6308980
writing back 29 6308984
writing back 28 6308988
writing back 27 6308992
writing back 26 6308996
writing back 25 6309000
writing back 24 6309004
writing back 23 6309008
writing back 22 6309012
writing back 21 6309016
writing back 20 6309020
writing back 19 6309024
writing back 18 6309028
writing back 17 6309032
writing back 16 6309036
writing back 15 6309040
writing back 14 6309044
writing back 13 6309048
writing back 12 6309052
writing back 11 6309056
writing back 10 6309060
writing back 9 6309064
writing back 8 6309068
writing back 7 6309072
writing back 6 6309076
writing back 5 6309080
writing back 4 6309084
writing back 3 6309088
writing back 2 6309092
writing back 1 6309096
writing back 0 6309100
writing back 0 6309104
writing back 0 6309108
writing back 0 6309112
writing back 0 6309116
writing back 0 6309120
writing back 0 6309124
writing back 0 6309128
writing back 0 6309132
writing back 0 6309136
writing back 0 6309140
writing back 0 6309144
writing back 0 6309148
writing back 0 6309152
writing back 0 6309156
writing back 0 6309160
writing back 0 6309164
writing back 0 6309168
writing back 0 6309172
writing back 0 6309176
writing back 0 6309180
writing back 0 6309184
writing back 0 6309188
writing back 0 6309192
writing back 0 6309196
writing back 0 6309200
writing back 0 6309204
writing back 0 6309208
writing back 0 6309212
writing back 0 6309216
writing back 0 6309220
writing back 1 6309224
writing back 2 6309228
writing back 3 6309232
writing back 4 6309236
writing back 5 6309240
writing back 6 6309244
writing back 7 6309248
writing back 8 6309252
writing back 9 6309256
writing back 10 6309260
writing back 11 6309264
writing back 12 6309268
writing back 13 6309272
writing back 14 6309276
writing back 15 6309280
writing back 16 6309284
writing back 17 6309288
writing back 18 6309292
writing back 19 6309296
writing back 20 6309300
writing back 21 6309304
writing back 22 6309308
writing back 23 6309312
writing back 24 6309316
writing back 25 6309320
writing back 26 6309324
writing back 27 6309328
writing back 28 6309332
writing back 29 6309336
writing back 0 6309340
writing back 2 6309344
writing back 4 6309348
writing back 6 6309352
writing back 8 6309356
writing back 10 6309360
writing back 12 6309364
writing back 14 6309368
writing back 16 6309372
writing back 18 6309376
writing back 20 6309380
writing back 22 6309384
writing back 24 6309388
writing back 26 6309392
writing back 28 6309396
writing back 0 6309400
writing back 2 6309404
writing back 4 6309408
writing back 6 6309412
writing back 8 6309416
writing back 10 6309420
writing back 12 6309424
writing back 14 6309428
writing back 16 6309432
writing back 18 6309436
writing back 20 6309440
writing back 22 6309444
writing back 24 6309448
writing back 26 6309452
writing back 28 6309456
writing back 0 6309460
writing back 3 6309464
writing back 6 6309468
writing back 9 6309472
writing back 12 6309476
writing back 15 6309480
writing back 18 6309484
writing back 21 6309488
writing back 24 6309492
writing back 27 6309496
writing back 0 6309500
writing back 3 6309504
writing back 6 6309508
writing back 9 6309512
writing back 12 6309516
writing back 15 6309520
writing back 18 6309524
writing back 21 6309528
writing back 24 6309532
writing back 27 6309536
writing back 0 6309540
writing back 3 6309544
writing back 6 6309548
writing back 9 6309552
writing back 12 6309556
writing back 15 6309560
writing back 18 6309564
writing back 21 6309568
writing back 24 6309572
writing back 27 6309576
writing back 0 6309580
writing back 4 6309584
writing back 8 6309588
writing back 12 6309592
writing back 16 6309596
writing back 20 6309600
writing back 24 6309604
writing back 28 6309608
writing back 2 6309612
writing back 6 6309616
writing back 10 6309620
writing back 14 6309624
writing back 18 6309628
writing back 22 6309632
writing back 26 6309636
writing back 0 6309640
writing back 4 6309644
writing back 8 6309648
writing back 12 6309652
writing back 16 6309656
writing back 20 6309660
writing back 24 6309664
writing back 28 6309668
writing back 2 6309672
writing back 6 6309676
writing back 10 6309680
writing back 14 6309684
writing back 18 6309688
writing back 22 6309692
writing back 26 6309696
writing back 0 6309700
writing back 5 6309704
writing back 10 6309708
writing back 15 6309712
writing back 20 6309716
writing back 25 6309720
writing back 0 6309724
writing back 5 6309728
writing back 10 6309732
writing back 15 6309736
writing back 20 6309740
writing back 25 6309744
writing back 0 6309748
writing back 5 6309752
writing back 10 6309756
writing back 15 6309760
writing back 20 6309764
writing back 25 6309768
writing back 0 6309772
writing back 5 6309776
writing back 10 6309780
writing back 15 6309784
writing back 20 6309788
writing back 25 6309792
writing back 0 6309796
writing back 5 6309800
writing back 10 6309804
writing back 15 6309808
writing back 20 6309812
writing back 25 6309816
writing back 0 6309820
writing back 6 6309824
writing back 12 6309828
writing back 18 6309832
writing back 24 6309836
writing back 0 6309840
writing back 6 6309844
writing back 12 6309848
writing back 18 6309852
writing back 24 6309856
writing back 0 6309860
writing back 6 6309864
writing back 12 6309868
writing back 18 6309872
writing back 24 6309876
writing back 0 6309880
writing back 6 6309884
writing back 12 6309888
writing back 18 6309892
writing back 24 6309896
writing back 0 6309900
writing back 6 6309904
writing back 12 6309908
writing back 18 6309912
writing back 24 6309916
writing back 0 6309920
writing back 6 6309924
writing back 12 6309928
writing back 18 6309932
writing back 24 6309936
writing back 0 6309940
writing back 7 6309944
writing back 14 6309948
writing back 21 6309952
writing back 28 6309956
writing back 5 6309960
writing back 12 6309964
writing back 19 6309968
writing back 26 6309972
writing back 3 6309976
writing back 10 6309980
writing back 17 6309984
writing back 24 6309988
writing back 1 6309992
writing back 8 6309996
writing back 15 6310000
writing back 22 6310004
writing back 29 6310008
writing back 6 6310012
writing back 13 6310016
writing back 20 6310020
writing back 27 6310024
writing back 4 6310028
writing back 11 6310032
writing back 18 6310036
writing back 25 6310040
writing back 2 6310044
writing back 9 6310048
writing back 16 6310052
writing back 23 6310056
writing back 0 6310060
writing back 8 6310064
writing back 16 6310068
writing back 24 6310072
writing back 2 6310076
writing back 10 6310080
writing back 18 6310084
writing back 26 6310088
writing back 4 6310092
writing back 12 6310096
writing back 20 6310100
writing back 28 6310104
writing back 6 6310108
writing back 14 6310112
writing back 22 6310116
writing back 0 6310120
writing back 8 6310124
writing back 16 6310128
writing back 24 6310132
writing back 2 6310136
writing back 10 6310140
writing back 18 6310144
writing back 26 6310148
writing back 4 6310152
writing back 12 6310156
writing back 20 6310160
writing back 28 6310164
writing back 6 6310168
writing back 14 6310172
writing back 22 6310176
writing back 0 6310180
writing back 9 6310184
writing back 18 6310188
writing back 27 6310192
writing back 6 6310196
writing back 15 6310200
writing back 24 6310204
writing back 3 6310208
writing back 12 6310212
writing back 21 6310216
writing back 0 6310220
writing back 9 6310224
writing back 18 6310228
writing back 27 6310232
writing back 6 6310236
writing back 15 6310240
writing back 24 6310244
writing back 3 6310248
writing back 12 6310252
writing back 21 6310256
writing back 0 6310260
writing back 9 6310264
writing back 18 6310268
writing back 27 6310272
writing back 6 6310276
writing back 15 6310280
writing back 24 6310284
writing back 3 6310288
writing back 12 6310292
writing back 21 6310296
writing back 0 6310300
writing back 1 6310304
writing back 1 6310308
writing back 1 6310312
writing back 1 6310316
writing back 1 6310320
writing back 1 6310324
writing back 1 6310328
writing back 1 6310332
writing back 1 6310336
writing back 1 6310340
writing back 1 6310344
writing back 1 6310348
writing back 1 6310352
writing back 1 6310356
writing back 1 6310360
writing back 1 6310364
writing back 1 6310368
writing back 1 6310372
writing back 1 6310376
writing back 1 6310380
writing back 1 6310384
writing back 1 6310388
writing back 1 6310392
writing back 1 6310396
writing back 1 6310400
writing back 1 6310404
writing back 1 6310408
writing back 1 6310412
writing back 1 6310416
writing back 1 6310420
writing back 1 6310424
writing back 1 6310428
writing back 1 6310432
writing back 1 6310436
writing back 1 6310440
writing back 1 6310444
writing back 1 6310448
writing back 1 6310452
writing back 1 6310456
writing back 1 6310460
writing back 1 6310464
writing back 1 6310468
writing back 1 6310472
writing back 1 6310476
writing back 1 6310480
writing back 1 6310484
writing back 1 6310488
writing back 1 6310492
writing back 1 6310496
writing back 1 6310500
writing back 4 6310504
writing back 5 6310508
writing back 6 6310512
writing back 7 6310516
writing back 8 6310520
writing back 9 6310524
writing back 10 6310528
writing back 11 6310532
writing back 12 6310536
writing back 13 6310540
writing back 14 6310544
writing back 15 6310548
writing back 16 6310552
writing back 17 6310556
writing back 18 6310560
writing back 19 6310564
writing back 20 6310568
writing back 21 6310572
writing back 22 6310576
writing back 23 6310580
writing back 24 6310584
writing back 25 6310588
writing back 26 6310592
writing back 27 6310596
writing back 28 6310600
writing back 29 6310604
writing back 30 6310608
writing back 31 6310612
writing back 32 6310616
writing back 33 6310620
writing back 34 6310624
writing back 35 6310628
writing back 36 6310632
writing back 37 6310636
writing back 38 6310640
writing back 39 6310644
writing back 40 6310648
writing back 41 6310652
writing back 42 6310656
writing back 43 6310660
writing back 44 6310664
writing back 45 6310668
writing back 46 6310672
writing back 47 6310676
writing back 48 6310680
writing back 49 6310684
writing back 0 6310688
writing back 1 6310692
writing back 2 6310696
writing back 3 6310700
writing back 7 6310704
writing back 9 6310708
writing back 11 6310712
writing back 13 6310716
writing back 15 6310720
writing back 17 6310724
writing back 19 6310728
writing back 21 6310732
writing back 23 6310736
writing back 25 6310740
writing back 27 6310744
writing back 29 6310748
writing back 31 6310752
writing back 33 6310756
writing back 35 6310760
writing back 37 6310764
writing back 39 6310768
writing back 41 6310772
writing back 43 6310776
writing back 45 6310780
writing back 47 6310784
writing back 49 6310788
writing back 1 6310792
writing back 3 6310796
writing back 5 6310800
writing back 7 6310804
writing back 9 6310808
writing back 11 6310812
writing back 13 6310816
writing back 15 6310820
writing back 17 6310824
writing back 19 6310828
writing back 21 6310832
writing back 23 6310836
writing back 25 6310840
writing back 27 6310844
writing back 29 6310848
writing back 31 6310852
writing back 33 6310856
writing back 35 6310860
writing back 37 6310864
writing back 39 6310868
writing back 41 6310872
writing back 43 6310876
writing back 45 6310880
writing back 47 6310884
writing back 49 6310888
writing back 1 6310892
writing back 3 6310896
writing back 5 6310900
writing back 10 6310904
writing back 13 6310908
writing back 16 6310912
writing back 19 6310916
writing back 22 6310920
writing back 25 6310924
writing back 28 6310928
writing back 31 6310932
writing back 34 6310936
writing back 37 6310940
writing back 40 6310944
writing back 43 6310948
writing back 46 6310952
writing back 49 6310956
writing back 2 6310960
writing back 5 6310964
writing back 8 6310968
writing back 11 6310972
writing back 14 6310976
writing back 17 6310980
writing back 20 6310984
writing back 23 6310988
writing back 26 6310992
writing back 29 6310996
writing back 32 6311000
writing back 35 6311004
writing back 38 6311008
writing back 41 6311012
writing back 44 6311016
writing back 47 6311020
writing back 0 6311024
writing back 3 6311028
writing back 6 6311032
writing back 9 6311036
writing back 12 6311040
writing back 15 6311044
writing back 18 6311048
writing back 21 6311052
writing back 24 6311056
writing back 27 6311060
writing back 30 6311064
writing back 33 6311068
writing back 36 6311072
writing back 39 6311076
writing back 42 6311080
writing back 45 6311084
writing back 48 6311088
writing back 1 6311092
writing back 4 6311096
writing back 7 6311100
writing back 13 6311104
writing back 17 6311108
writing back 21 6311112
writing back 25 6311116
writing back 29 6311120
writing back 33 6311124
writing back 37 6311128
writing back 41 6311132
writing back 45 6311136
writing back 49 6311140
writing back 3 6311144
writing back 7 6311148
writing back 11 6311152
writing back 15 6311156
writing back 19 6311160
writing back 23 6311164
writing back 27 6311168
writing back 31 6311172
writing back 35 6311176
writing back 39 6311180
writing back 43 6311184
writing back 47 6311188
writing back 1 6311192
writing back 5 6311196
writing back 9 6311200
writing back 13 6311204
writing back 17 6311208
writing back 21 6311212
writing back 25 6311216
writing back 29 6311220
writing back 33 6311224
writing back 37 6311228
writing back 41 6311232
writing back 45 6311236
writing back 49 6311240
writing back 3 6311244
writing back 7 6311248
writing back 11 6311252
writing back 15 6311256
writing back 19 6311260
writing back 23 6311264
writing back 27 6311268
writing back 31 6311272
writing back 35 6311276
writing back 39 6311280
writing back 43 6311284
writing back 47 6311288
writing back 1 6311292
writing back 5 6311296
writing back 9 6311300
writing back 16 6311304
writing back 21 6311308
writing back 26 6311312
writing back 31 6311316
writing back 36 6311320
writing back 41 6311324
writing back 46 6311328
writing back 1 6311332
writing back 6 6311336
writing back 11 6311340
writing back 16 6311344
writing back 21 6311348
writing back 26 6311352
writing back 31 6311356
writing back 36 6311360
writing back 41 6311364
writing back 46 6311368
writing back 1 6311372
writing back 6 6311376
writing back 11 6311380
writing back 16 6311384
writing back 21 6311388
writing back 26 6311392
writing back 31 6311396
writing back 36 6311400
writing back 41 6311404
writing back 46 6311408
writing back 1 6311412
writing back 6 6311416
writing back 11 6311420
writing back 16 6311424
writing back 21 6311428
writing back 26 6311432
writing back 31 6311436
writing back 36 6311440
writing back 41 6311444
writing back 46 6311448
writing back 1 6311452
writing back 6 6311456
writing back 11 6311460
writing back 16 6311464
writing back 21 6311468
writing back 26 6311472
writing back 31 6311476
writing back 36 6311480
writing back 41 6311484
writing back 46 6311488
writing back 1 6311492
writing back 6 6311496
writing back 11 6311500
writing back 19 6311504
writing back 25 6311508
writing back 31 6311512
writing back 37 6311516
writing back 43 6311520
writing back 49 6311524
writing back 5 6311528
writing back 11 6311532
writing back 17 6311536
writing back 23 6311540
writing back 29 6311544
writing back 35 6311548
writing back 41 6311552
writing back 47 6311556
writing back 3 6311560
writing back 9 6311564
writing back 15 6311568
writing back 21 6311572
writing back 27 6311576
writing back 33 6311580
writing back 39 6311584
writing back 45 6311588
writing back 1 6311592
writing back 7 6311596
writing back 13 6311600
writing back 19 6311604
writing back 25 6311608
writing back 31 6311612
writing back 37 6311616
writing back 43 6311620
writing back 49 6311624
writing back 5 6311628
writing back 11 6311632
writing back 17 6311636
writing back 23 6311640
writing back 29 6311644
writing back 35 6311648
writing back 41 6311652
writing back 47 6311656
writing back 3 6311660
writing back 9 6311664
writing back 15 6311668
writing back 21 6311672
writing back 27 6311676
writing back 33 6311680
writing back 39 6311684
writing back 45 6311688
writing back 1 6311692
writing back 7 6311696
writing back 13 6311700
writing back 22 6311704
writing back 29 6311708
writing back 36 6311712
writing back 43 6311716
writing back 0 6311720
writing back 7 6311724
writing back 14 6311728
writing back 21 6311732
writing back 28 6311736
writing back 35 6311740
writing back 42 6311744
writing back 49 6311748
writing back 6 6311752
writing back 13 6311756
writing back 20 6311760
writing back 27 6311764
writing back 34 6311768
writing back 41 6311772
writing back 48 6311776
writing back 5 6311780
writing back 12 6311784
writing back 19 6311788
writing back 26 6311792
writing back 33 6311796
writing back 40 6311800
writing back 47 6311804
writing back 4 6311808
writing back 11 6311812
writing back 18 6311816
writing back 25 6311820
writing back 32 6311824
writing back 39 6311828
writing back 46 6311832
writing back 3 6311836
writing back 10 6311840
writing back 17 6311844
writing back 24 6311848
writing back 31 6311852
writing back 38 6311856
writing back 45 6311860
writing back 2 6311864
writing back 9 6311868
writing back 16 6311872
writing back 23 6311876
writing back 30 6311880
writing back 37 6311884
writing back 44 6311888
writing back 1 6311892
writing back 8 6311896
writing back 15 6311900
writing back 25 6311904
writing back 33 6311908
writing back 41 6311912
writing back 49 6311916
writing back 7 6311920
writing back 15 6311924
writing back 23 6311928
writing back 31 6311932
writing back 39 6311936
writing back 47 6311940
writing back 5 6311944
writing back 13 6311948
writing back 21 6311952
writing back 29 6311956
writing back 37 6311960
writing back 45 6311964
writing back 3 6311968
writing back 11 6311972
writing back 19 6311976
writing back 27 6311980
writing back 35 6311984
writing back 43 6311988
writing back 1 6311992
writing back 9 6311996
writing back 17 6312000
writing back 25 6312004
writing back 33 6312008
writing back 41 6312012
writing back 49 6312016
writing back 7 6312020
writing back 15 6312024
writing back 23 6312028
writing back 31 6312032
writing back 39 6312036
writing back 47 6312040
writing back 5 6312044
writing back 13 6312048
writing back 21 6312052
writing back 29 6312056
writing back 37 6312060
writing back 45 6312064
writing back 3 6312068
writing back 11 6312072
writing back 19 6312076
writing back 27 6312080
writing back 35 6312084
writing back 43 6312088
writing back 1 6312092
writing back 9 6312096
writing back 17 6312100
writing back 28 6312104
writing back 37 6312108
writing back 46 6312112
writing back 5 6312116
writing back 14 6312120
writing back 23 6312124
writing back 32 6312128
writing back 41 6312132
writing back 0 6312136
writing back 9 6312140
writing back 18 6312144
writing back 27 6312148
writing back 36 6312152
writing back 45 6312156
writing back 4 6312160
writing back 13 6312164
writing back 22 6312168
writing back 31 6312172
writing back 40 6312176
writing back 49 6312180
writing back 8 6312184
writing back 17 6312188
writing back 26 6312192
writing back 35 6312196
writing back 44 6312200
writing back 3 6312204
writing back 12 6312208
writing back 21 6312212
writing back 30 6312216
writing back 39 6312220
writing back 48 6312224
writing back 7 6312228
writing back 16 6312232
writing back 25 6312236
writing back 34 6312240
writing back 43 6312244
writing back 2 6312248
writing back 11 6312252
writing back 20 6312256
writing back 29 6312260
writing back 38 6312264
writing back 47 6312268
writing back 6 6312272
writing back 15 6312276
writing back 24 6312280
writing back 33 6312284
writing back 42 6312288
writing back 1 6312292
writing back 10 6312296
writing back 19 6312300
writing back 31 6312304
writing back 41 6312308
writing back 1 6312312
writing back 11 6312316
writing back 21 6312320
writing back 31 6312324
writing back 41 6312328
writing back 1 6312332
writing back 11 6312336
writing back 21 6312340
writing back 31 6312344
writing back 41 6312348
writing back 1 6312352
writing back 11 6312356
writing back 21 6312360
writing back 31 6312364
writing back 41 6312368
writing back 1 6312372
writing back 11 6312376
writing back 21 6312380
writing back 31 6312384
writing back 41 6312388
writing back 1 6312392
writing back 11 6312396
writing back 21 6312400
writing back 31 6312404
writing back 41 6312408
writing back 1 6312412
writing back 11 6312416
writing back 21 6312420
writing back 31 6312424
writing back 41 6312428
writing back 1 6312432
writing back 11 6312436
writing back 21 6312440
writing back 31 6312444
writing back 41 6312448
writing back 1 6312452
writing back 11 6312456
writing back 21 6312460
writing back 31 6312464
writing back 41 6312468
writing back 1 6312472
writing back 11 6312476
writing back 21 6312480
writing back 31 6312484
writing back 41 6312488
writing back 1 6312492
writing back 11 6312496
writing back 21 6312500
writing back 34 6312504
writing back 45 6312508
writing back 6 6312512
writing back 17 6312516
writing back 28 6312520
writing back 39 6312524
writing back 0 6312528
writing back 11 6312532
writing back 22 6312536
writing back 33 6312540
writing back 44 6312544
writing back 5 6312548
writing back 16 6312552
writing back 27 6312556
writing back 38 6312560
writing back 49 6312564
writing back 10 6312568
writing back 21 6312572
writing back 32 6312576
writing back 43 6312580
writing back 4 6312584
writing back 15 6312588
writing back 26 6312592
writing back 37 6312596
writing back 48 6312600
writing back 9 6312604
writing back 20 6312608
writing back 31 6312612
writing back 42 6312616
writing back 3 6312620
writing back 14 6312624
writing back 25 6312628
writing back 36 6312632
writing back 47 6312636
writing back 8 6312640
writing back 19 6312644
writing back 30 6312648
writing back 41 6312652
writing back 2 6312656
writing back 13 6312660
writing back 24 6312664
writing back 35 6312668
writing back 46 6312672
writing back 7 6312676
writing back 18 6312680
writing back 29 6312684
writing back 40 6312688
writing back 1 6312692
writing back 12 6312696
writing back 23 6312700
writing back 37 6312704
writing back 49 6312708
writing back 11 6312712
writing back 23 6312716
writing back 35 6312720
writing back 47 6312724
writing back 9 6312728
writing back 21 6312732
writing back 33 6312736
writing back 45 6312740
writing back 7 6312744
writing back 19 6312748
writing back 31 6312752
writing back 43 6312756
writing back 5 6312760
writing back 17 6312764
writing back 29 6312768
writing back 41 6312772
writing back 3 6312776
writing back 15 6312780
writing back 27 6312784
writing back 39 6312788
writing back 1 6312792
writing back 13 6312796
writing back 25 6312800
writing back 37 6312804
writing back 49 6312808
writing back 11 6312812
writing back 23 6312816
writing back 35 6312820
writing back 47 6312824
writing back 9 6312828
writing back 21 6312832
writing back 33 6312836
writing back 45 6312840
writing back 7 6312844
writing back 19 6312848
writing back 31 6312852
writing back 43 6312856
writing back 5 6312860
writing back 17 6312864
writing back 29 6312868
writing back 41 6312872
writing back 3 6312876
writing back 15 6312880
writing back 27 6312884
writing back 39 6312888
writing back 1 6312892
writing back 13 6312896
writing back 25 6312900
writing back 40 6312904
writing back 3 6312908
writing back 16 6312912
writing back 29 6312916
writing back 42 6312920
writing back 5 6312924
writing back 18 6312928
writing back 31 6312932
writing back 44 6312936
writing back 7 6312940
writing back 20 6312944
writing back 33 6312948
writing back 46 6312952
writing back 9 6312956
writing back 22 6312960
writing back 35 6312964
writing back 48 6312968
writing back 11 6312972
writing back 24 6312976
writing back 37 6312980
writing back 0 6312984
writing back 13 6312988
writing back 26 6312992
writing back 39 6312996
writing back 2 6313000
writing back 15 6313004
writing back 28 6313008
writing back 41 6313012
writing back 4 6313016
writing back 17 6313020
writing back 30 6313024
writing back 43 6313028
writing back 6 6313032
writing back 19 6313036
writing back 32 6313040
writing back 45 6313044
writing back 8 6313048
writing back 21 6313052
writing back 34 6313056
[...]
writing back 7785600 6317616
writing back 7814898 6317620
writing back 8657196 6317624
writing back 7414494 6317628
writing back 7683672 6317632
writing back 7724970 6317636
writing back 7856268 6317640
writing back 7714566 6317644
writing back 7665864 6317648
writing back 7050162 6317652
writing back 8129340 6317656
writing back 7954638 6317660
writing back 7707936 6317664
writing back 8106234 6317668
writing back 7784532 6317672
writing back 8335830 6317676
writing back 8362128 6317680
writing back 8610306 6317684
writing back 10721604 6317688
writing back 319902 6317692
writing back 4882200 6317696
writing back 6909498 6317700
writing back 6651342 6317704
writing back 6687423 6317708
writing back 6729504 6317712
writing back 6805585 6317716
writing back 7446546 6317720
writing back 6990627 6317724
writing back 7054708 6317728
writing back 5838789 6317732
writing back 7393870 6317736
writing back 7256951 6317740
writing back 6690912 6317744
writing back 7304993 6317748
writing back 6898074 6317752
writing back 7507155 6317756
writing back 6366236 6317760
writing back 7110317 6317764
writing back 7210278 6317768
writing back 6034359 6317772
writing back 7183440 6317776
writing back 7334521 6317780
writing back 7450602 6317784
writing back 7473563 6317788
writing back 3817644 6317792
writing back 6971725 6317796
writing back 7003806 6317800
writing back 7110887 6317804
writing back 7384968 6317808
writing back 6289929 6317812
writing back 7218010 6317816
writing back 7335091 6317820
writing back 8113172 6317824
writing back 6938253 6317828
writing back 7001334 6317832
writing back 7140295 6317836
writing back 7287376 6317840
writing back 7188457 6317844
writing back 7223538 6317848
writing back 6485619 6317852
writing back 7494580 6317856
writing back 7454661 6317860
writing back 7049742 6317864
writing back 7639823 6317868
writing back 7169904 6317872
writing back 7757985 6317876
writing back 7873946 6317880
writing back 7926027 6317884
writing back 9908108 6317888
writing back 297189 6317892
writing back 4582270 6317896
writing back 6519351 6317900
writing back 6636348 6317904
writing back 6703212 6317908
writing back 6548076 6317912
writing back 6789820 6317916
writing back 7416684 6317920
writing back 7012548 6317924
writing back 6882412 6317928
writing back 5721276 6317932
writing back 7286020 6317936
writing back 7236884 6317940
writing back 6647748 6317944
writing back 7247612 6317948
writing back 6868476 6317952
writing back 7481220 6317956
writing back 6419084 6317960
writing back 7127948 6317964
writing back 7186812 6317968
writing back 5924676 6317972
writing back 7194420 6317976
writing back 7313284 6317980
writing back 7244148 6317984
writing back 7403012 6317988
writing back 3855876 6317992
writing back 6956620 6317996
writing back 7055484 6318000
writing back 7046348 6318004
writing back 7315212 6318008
writing back 6302076 6318012
writing back 7152820 6318016
writing back 7231684 6318020
writing back 7911548 6318024
writing back 6878412 6318028
writing back 6897276 6318032
writing back 7112020 6318036
writing back 7124884 6318040
writing back 7122748 6318044
writing back 7239612 6318048
writing back 6505476 6318052
writing back 7374220 6318056
writing back 7347084 6318060
writing back 6933948 6318064
writing back 7569812 6318068
writing back 7217676 6318072
writing back 7656420 6318076
writing back 7812284 6318080
writing back 7922148 6318084
writing back 9893012 6318088
writing back 294876 6318092
writing back 4496620 6318096
writing back 6437484 6318100
writing back 6606954 6318104
writing back 6567801 6318108
writing back 6642648 6318112
writing back 6773375 6318116
writing back 7269222 6318120
writing back 6900069 6318124
writing back 6958916 6318128
writing back 5735643 6318132
writing back 7309490 6318136
writing back 7191337 6318140
writing back 6566184 6318144
writing back 7191031 6318148
writing back 6802758 6318152
writing back 7366605 6318156
writing back 6302452 6318160
writing back 7067299 6318164
writing back 7072026 6318168
writing back 5922873 6318172
writing back 7116720 6318176
writing back 7202567 6318180
writing back 7311414 6318184
writing back 7429141 6318188
writing back 3713988 6318192
writing back 6796835 6318196
writing back 6893682 6318200
writing back 7023409 6318204
writing back 7250256 6318208
writing back 6242103 6318212
writing back 7146950 6318216
writing back 7158797 6318220
writing back 7919524 6318224
writing back 6859371 6318228
writing back 6877218 6318232
writing back 7035065 6318236
writing back 7148792 6318240
writing back 7034639 6318244
writing back 7080486 6318248
writing back 6429333 6318252
writing back 7313060 6318256
writing back 7325907 6318260
writing back 6959754 6318264
writing back 7452601 6318268
writing back 7037448 6318272
writing back 7658175 6318276
writing back 7689022 6318280
writing back 7867869 6318284
writing back 9794716 6318288
writing back 292443 6318292
writing back 4482290 6318296
writing back 6358137 6318300
writing back 4395960 6318304
writing back 4287990 6318308
writing back 4365900 6318312
writing back 4522930 6318316
writing back 4824960 6318320
writing back 4527990 6318324
writing back 4612900 6318328
writing back 3864930 6318332
writing back 4768960 6318336
writing back 4778990 6318340
writing back 4350900 6318344
writing back 4781930 6318348
writing back 4401960 6318352
writing back 4869990 6318356
writing back 4184900 6318360
writing back 4574930 6318364
writing back 4638960 6318368
writing back 3963990 6318372
writing back 4758900 6318376
writing back 4732930 6318380
writing back 4836960 6318384
writing back 4970990 6318388
writing back 2364900 6318392
writing back 4414930 6318396
writing back 4578960 6318400
writing back 4652990 6318404
writing back 4734900 6318408
writing back 4068930 6318412
writing back 4756960 6318416
writing back 4810990 6318420
writing back 5213900 6318424
writing back 4515930 6318428
writing back 4629960 6318432
writing back 4603990 6318436
writing back 4723900 6318440
writing back 4606930 6318444
writing back 4734960 6318448
writing back 4167990 6318452
writing back 4831900 6318456
writing back 4857930 6318460
writing back 4563960 6318464
writing back 4862990 6318468
writing back 4665900 6318472
writing back 5097930 6318476
writing back 5048960 6318480
writing back 5145990 6318484
writing back 6461900 6318488
writing back 192930 6318492
writing back 2959960 6318496
writing back 4239990 6318500
writing back 6608166 6318504
writing back 6578979 6318508
writing back 6567672 6318512
writing back 6738485 6318516
writing back 7394298 6318520
writing back 6897111 6318524
writing back 6935804 6318528
writing back 5710617 6318532
writing back 7312430 6318536
writing back 7138123 6318540
writing back 6534936 6318544
writing back 7319749 6318548
writing back 6815562 6318552
writing back 7395255 6318556
writing back 6317068 6318560
writing back 7019881 6318564
writing back 7130694 6318568
writing back 5937387 6318572
writing back 7141200 6318576
writing back 7231013 6318580
writing back 7337706 6318584
writing back 7435519 6318588
writing back 3766332 6318592
writing back 6811145 6318596
writing back 6869838 6318600
writing back 7015651 6318604
writing back 7300464 6318608
writing back 6224277 6318612
writing back 7102970 6318616
writing back 7226783 6318620
writing back 7979596 6318624
writing back 6851289 6318628
writing back 6849102 6318632
writing back 6926915 6318636
writing back 7200728 6318640
writing back 7108421 6318644
writing back 7146234 6318648
writing back 6451047 6318652
writing back 7422740 6318656
writing back 7349553 6318660
writing back 6915366 6318664
writing back 7508179 6318668
writing back 7096872 6318672
writing back 7667685 6318676
writing back 7726498 6318680
writing back 7849311 6318684
writing back 9822004 6318688
writing back 293817 6318692
writing back 4505630 6318696
writing back 6397323 6318700
writing back 6541572 6318704
writing back 6573168 6318708
writing back 6718644 6318712
writing back 6745240 6318716
writing back 7276836 6318720
writing back 6981312 6318724
writing back 6875908 6318728
writing back 5715504 6318732
writing back 7352980 6318736
writing back 7076576 6318740
writing back 6524172 6318744
writing back 7220768 6318748
writing back 6794244 6318752
writing back 7431840 6318756
writing back 6418436 6318760
writing back 6983912 6318764
writing back 7187508 6318768
writing back 5974104 6318772
writing back 7088580 6318776
writing back 7172176 6318780
writing back 7463772 6318784
writing back 7347368 6318788
writing back 3836844 6318792
writing back 6890440 6318796
writing back 6834036 6318800
writing back 7065512 6318804
writing back 7395108 6318808
writing back 6190704 6318812
writing back 7090180 6318816
writing back 7253776 6318820
writing back 7934372 6318824
writing back 6805968 6318828
writing back 7029444 6318832
writing back 7017040 6318836
writing back 7198636 6318840
writing back 7161112 6318844
writing back 7134708 6318848
writing back 6449304 6318852
writing back 7522780 6318856
writing back 7256376 6318860
writing back 7035972 6318864
writing back 7492568 6318868
writing back 7105044 6318872
writing back 7664640 6318876
writing back 7665236 6318880
writing back 7823712 6318884
writing back 9819308 6318888
writing back 293904 6318892
writing back 4520380 6318896
writing back 6413976 6318900
writing back 6520578 6318904
writing back 6521757 6318908
writing back 6408816 6318912
writing back 6679995 6318916
writing back 7116174 6318920
writing back 6811233 6318924
writing back 6830412 6318928
writing back 5583591 6318932
writing back 7189650 6318936
writing back 7079829 6318940
writing back 6463008 6318944
writing back 7124067 6318948
writing back 6684246 6318952
writing back 7264425 6318956
writing back 6248484 6318960
writing back 6957663 6318964
writing back 7018842 6318968
writing back 5837901 6318972
writing back 7012080 6318976
writing back 7082259 6318980
writing back 7227318 6318984
writing back 7345497 6318988
writing back 3662676 6318992
writing back 6681735 6318996
writing back 6790914 6319000
writing back 6945093 6319004
writing back 7228152 6319008
writing back 6104331 6319012
writing back 7005510 6319016
writing back 7069569 6319020
writing back 7790748 6319024
writing back 6762927 6319028
writing back 6760986 6319032
writing back 6903165 6319036
writing back 7069344 6319040
writing back 6947403 6319044
writing back 7041582 6319048
writing back 6358761 6319052
writing back 7250820 6319056
writing back 7215999 6319060
writing back 6926178 6319064
writing back 7347357 6319068
writing back 7036416 6319072
writing back 7505595 6319076
writing back 7584774 6319080
writing back 7759833 6319084
writing back 9663012 6319088
writing back 289191 6319092
writing back 4391250 6319096
writing back 6267429 6319100
writing back 7253184 6319104
writing back 7250226 6319108
writing back 7169388 6319112
writing back 7391550 6319116
writing back 8198592 6319120
writing back 7610754 6319124
writing back 7640916 6319128
writing back 6233958 6319132
writing back 7911120 6319136
writing back 7914282 6319140
writing back 7263324 6319144
writing back 8031486 6319148
writing back 7464648 6319152
writing back 8157690 6319156
writing back 6981852 6319160
writing back 7669014 6319164
writing back 7858056 6319168
writing back 6472218 6319172
writing back 7912260 6319176
writing back 8011422 6319180
writing back 7996584 6319184
writing back 8155626 6319188
writing back 4126788 6319192
writing back 7549950 6319196
writing back 7678992 6319200
writing back 7694154 6319204
writing back 7937316 6319208
writing back 6800358 6319212
writing back 7817520 6319216
writing back 8036682 6319220
writing back 8720724 6319224
writing back 7547886 6319228
writing back 7467048 6319232
writing back 7674090 6319236
writing back 7863252 6319240
writing back 7791414 6319244
writing back 7956456 6319248
writing back 7038618 6319252
writing back 8067660 6319256
writing back 8094822 6319260
writing back 7533984 6319264
writing back 8314026 6319268
writing back 7762188 6319272
writing back 8455350 6319276
writing back 8551392 6319280
writing back 8617554 6319284
writing back 10798716 6319288
writing back 322758 6319292
writing back 4954920 6319296
writing back 7088082 6319300
writing back 5986590 6319304
writing back 5919615 6319308
writing back 6038760 6319312
writing back 6171905 6319316
writing back 6549930 6319320
writing back 6219075 6319324
writing back 6280100 6319328
writing back 5293245 6319332
writing back 6593390 6319336
writing back 6549415 6319340
writing back 5992560 6319344
writing back 6559705 6319348
writing back 6125730 6319352
writing back 6679875 6319356
writing back 5695900 6319360
writing back 6337045 6319364
writing back 6422190 6319368
writing back 5443215 6319372
writing back 6489360 6319376
writing back 6529505 6319380
writing back 6574530 6319384
writing back 6754675 6319388
writing back 3359700 6319392
writing back 6150845 6319396
writing back 6315990 6319400
writing back 6376015 6319404
writing back 6539160 6319408
writing back 5629305 6319412
writing back 6518330 6319416
writing back 6568475 6319420
writing back 7187500 6319424
writing back 6225645 6319428
writing back 6305790 6319432
writing back 6345815 6319436
writing back 6461960 6319440
writing back 6356105 6319444
writing back 6440130 6319448
writing back 5779275 6319452
writing back 6689300 6319456
writing back 6686445 6319460
writing back 6298590 6319464
writing back 6733615 6319468
writing back 6392760 6319472
writing back 6985905 6319476
writing back 6982930 6319480
writing back 7116075 6319484
writing back 8883100 6319488
writing back 265245 6319492
writing back 4043390 6319496
writing back 5789415 6319500
writing back 6641196 6319504
writing back 6669804 6319508
writing back 6692532 6319512
writing back 6796140 6319516
writing back 7304868 6319520
writing back 6970596 6319524
writing back 6822204 6319528
writing back 5794932 6319532
writing back 7353540 6319536
writing back 7202268 6319540
writing back 6582996 6319544
writing back 7244604 6319548
writing back 6883332 6319552
writing back 7421940 6319556
writing back 6445668 6319560
writing back 7008396 6319564
writing back 7193004 6319568
writing back 5976732 6319572
writing back 7208340 6319576
writing back 7225068 6319580
writing back 7349796 6319584
writing back 7330404 6319588
writing back 3849132 6319592
writing back 6979740 6319596
writing back 6948468 6319600
writing back 7085196 6319604
writing back 7287804 6319608
writing back 6344532 6319612
writing back 7153140 6319616
writing back 7301868 6319620
writing back 7891596 6319624
writing back 6888204 6319628
writing back 6928932 6319632
writing back 7065540 6319636
writing back 7040268 6319640
writing back 7107996 6319644
writing back 7154604 6319648
writing back 6526332 6319652
writing back 7508940 6319656
writing back 7339668 6319660
writing back 6996396 6319664
writing back 7514004 6319668
writing back 7119732 6319672
writing back 7640340 6319676
writing back 7690068 6319680
writing back 7817796 6319684
writing back 9814404 6319688
writing back 294132 6319692
writing back 4585740 6319696
writing back 6492468 6319700
writing back 6589002 6319704
writing back 6575193 6319708
writing back 6687504 6319712
writing back 6723695 6319716
writing back 7425006 6319720
writing back 6949317 6319724
writing back 6973508 6319728
writing back 5787819 6319732
writing back 7363010 6319736
writing back 7186321 6319740
writing back 6550512 6319744
writing back 7224823 6319748
writing back 6838134 6319752
writing back 7427325 6319756
writing back 6316636 6319760
writing back 7010827 6319764
writing back 7161138 6319768
writing back 5965329 6319772
writing back 7184640 6319776
writing back 7295951 6319780
writing back 7382142 6319784
writing back 7465453 6319788
writing back 3739644 6319792
writing back 6823955 6319796
writing back 6886146 6319800
writing back 6993457 6319804
writing back 7257768 6319808
writing back 6262959 6319812
writing back 7121270 6319816
writing back 7278461 6319820
writing back 8016772 6319824
writing back 6861963 6319828
writing back 6905274 6319832
writing back 7064585 6319836
writing back 7251776 6319840
writing back 7103087 6319844
writing back 7078278 6319848
writing back 6440589 6319852
writing back 7409780 6319856
writing back 7340091 6319860
writing back 6915402 6319864
writing back 7565593 6319868
writing back 7055904 6319872
writing back 7714095 6319876
writing back 7770406 6319880
writing back 7902717 6319884
writing back 9854908 6319888
writing back 294219 6319892
writing back 4509410 6319896
writing back 6386721 6319900
writing back 7333608 6319904
writing back 7237782 6319908
writing back 7412076 6319912
writing back 7421250 6319916
writing back 8135544 6319920
writing back 7598718 6319924
writing back 7596012 6319928
writing back 6372186 6319932
writing back 8112480 6319936
writing back 7890774 6319940
writing back 7230948 6319944
writing back 7906242 6319948
writing back 7534416 6319952
writing back 8146710 6319956
writing back 7009884 6319960
writing back 7640178 6319964
writing back 7868352 6319968
writing back 6521646 6319972
writing back 7928820 6319976
writing back 7923114 6319980
writing back 8091408 6319984
writing back 8097582 6319988
writing back 4107876 6319992
writing back 7582050 6319996
writing back 7582344 6320000
writing back 7756518 6320004
writing back 7942812 6320008
writing back 6976986 6320012
writing back 7829280 6320016
writing back 8039574 6320020
writing back 8714748 6320024
writing back 7533042 6320028
writing back 7599216 6320032
writing back 7773510 6320036
writing back 7809684 6320040
writing back 7788978 6320044
writing back 7765152 6320048
writing back 7126446 6320052
writing back 8158620 6320056
writing back 8080914 6320060
writing back 7571208 6320064
writing back 8258382 6320068
writing back 7721676 6320072
writing back 8441850 6320076
writing back 8421144 6320080
writing back 8622318 6320084
writing back 10722612 6320088
writing back 321786 6320092
writing back 5065080 6320096
writing back 7057374 6320100
writing back 6609414 6320104
writing back 6619971 6320108
writing back 6684648 6320112
writing back 6775205 6320116
writing back 7290882 6320120
writing back 6941439 6320124
writing back 6960116 6320128
writing back 5786673 6320132
writing back 7380350 6320136
writing back 7221907 6320140
writing back 6646584 6320144
writing back 7171141 6320148
writing back 6862818 6320152
writing back 7446375 6320156
writing back 6312052 6320160
writing back 7066609 6320164
writing back 7181286 6320168
writing back 5991843 6320172
writing back 7175520 6320176
writing back 7281197 6320180
writing back 7379754 6320184
writing back 7457431 6320188
writing back 3791988 6320192
writing back 6864665 6320196
writing back 6951222 6320200
writing back 7040899 6320204
writing back 7317456 6320208
writing back 6269133 6320212
writing back 7163690 6320216
writing back 7255367 6320220
writing back 8035924 6320224
writing back 6875601 6320228
writing back 6973158 6320232
writing back 7150835 6320236
writing back 7224392 6320240
writing back 7100069 6320244
writing back 7105626 6320248
writing back 6474303 6320252
writing back 7437860 6320256
writing back 7380537 6320260
writing back 7034214 6320264
writing back 7546771 6320268
writing back 7151448 6320272
writing back 7702005 6320276
writing back 7812682 6320280
writing back 7951239 6320284
writing back 9867916 6320288
writing back 295473 6320292
writing back 4475150 6320296
writing back 6370707 6320300
writing back 2 6320304
writing back 3 6320308
info: Increasing stack size by one page.
info: Increasing stack size by one page.
info: Increasing stack size by one page.
Exiting @ tick 1011807000 because target called exit()
ppid = 6080

Memory attached at 7F7DA7466000
/home/tingyuan/Documents/PAAS_Project/PASS_V1.0
FPGA read:------------
         0          0         36         26
time1:                23673
time2:               121157
      1020       1140    7333608    7920138
time3:               156872
