
---------- Begin Simulation Statistics ----------
sim_seconds                                  0.000216                       # Number of seconds simulated
sim_ticks                                   215586000                       # Number of ticks simulated
final_tick                                  215586000                       # Number of ticks from beginning of simulation (restored from checkpoints and never reset)
sim_freq                                 1000000000000                       # Frequency of simulated ticks
host_inst_rate                                  75589                       # Simulator instruction rate (inst/s)
host_op_rate                                   141471                       # Simulator op (including micro ops) rate (op/s)
host_tick_rate                               92041297                       # Simulator tick rate (ticks/s)
host_mem_usage                                 758288                       # Number of bytes of host memory used
host_seconds                                     2.34                       # Real time elapsed on the host
sim_insts                                      177050                       # Number of instructions simulated
sim_ops                                        331364                       # Number of ops (including micro ops) simulated
system.voltage_domain.voltage                       1                       # Voltage in Volts
system.clk_domain.clock                          1000                       # Clock period in ticks
system.mem_ctrls.pwrStateResidencyTicks::UNDEFINED    215586000                       # Cumulative time (in ticks) in various power states
system.mem_ctrls.bytes_read::ruby.dir_cntrl0       222464                       # Number of bytes read from this memory
system.mem_ctrls.bytes_read::total             222464                       # Number of bytes read from this memory
system.mem_ctrls.num_reads::ruby.dir_cntrl0         3476                       # Number of read requests responded to by this memory
system.mem_ctrls.num_reads::total                3476                       # Number of read requests responded to by this memory
system.mem_ctrls.bw_read::ruby.dir_cntrl0   1031903741                       # Total read bandwidth from this memory (bytes/s)
system.mem_ctrls.bw_read::total            1031903741                       # Total read bandwidth from this memory (bytes/s)
system.mem_ctrls.bw_total::ruby.dir_cntrl0   1031903741                       # Total bandwidth to/from this memory (bytes/s)
system.mem_ctrls.bw_total::total           1031903741                       # Total bandwidth to/from this memory (bytes/s)
system.mem_ctrls.readReqs                        3476                       # Number of read requests accepted
system.mem_ctrls.avgNetLat                       0.00                       # Average network latency to DRAM controller
system.mem_ctrls.writeReqs                          0                       # Number of write requests accepted
system.mem_ctrls.readBursts                      3476                       # Number of DRAM read bursts, including those serviced by the write queue
system.mem_ctrls.writeBursts                        0                       # Number of DRAM write bursts, including those merged in the write queue
system.mem_ctrls.bytesReadDRAM                 222464                       # Total number of bytes read from DRAM
system.mem_ctrls.bytesReadWrQ                       0                       # Total number of bytes read from write queue
system.mem_ctrls.bytesWritten                       0                       # Total number of bytes written to DRAM
system.mem_ctrls.bytesReadSys                  222464                       # Total read bytes from the system interface side
system.mem_ctrls.bytesWrittenSys                    0                       # Total written bytes from the system interface side
system.mem_ctrls.servicedByWrQ                      0                       # Number of DRAM read bursts serviced by the write queue
system.mem_ctrls.mergedWrBursts                     0                       # Number of DRAM write bursts merged with an existing one
system.mem_ctrls.neitherReadNorWriteReqs            0                       # Number of requests that are neither read nor write
system.mem_ctrls.perBankRdBursts::0               251                       # Per bank write bursts
system.mem_ctrls.perBankRdBursts::1               231                       # Per bank write bursts
system.mem_ctrls.perBankRdBursts::2               209                       # Per bank write bursts
system.mem_ctrls.perBankRdBursts::3               193                       # Per bank write bursts
system.mem_ctrls.perBankRdBursts::4               262                       # Per bank write bursts
system.mem_ctrls.perBankRdBursts::5               278                       # Per bank write bursts
system.mem_ctrls.perBankRdBursts::6               264                       # Per bank write bursts
system.mem_ctrls.perBankRdBursts::7               201                       # Per bank write bursts
system.mem_ctrls.perBankRdBursts::8               223                       # Per bank write bursts
system.mem_ctrls.perBankRdBursts::9               300                       # Per bank write bursts
system.mem_ctrls.perBankRdBursts::10              375                       # Per bank write bursts
system.mem_ctrls.perBankRdBursts::11              243                       # Per bank write bursts
system.mem_ctrls.perBankRdBursts::12               41                       # Per bank write bursts
system.mem_ctrls.perBankRdBursts::13              121                       # Per bank write bursts
system.mem_ctrls.perBankRdBursts::14              102                       # Per bank write bursts
system.mem_ctrls.perBankRdBursts::15              182                       # Per bank write bursts
system.mem_ctrls.perBankWrBursts::0                 0                       # Per bank write bursts
system.mem_ctrls.perBankWrBursts::1                 0                       # Per bank write bursts
system.mem_ctrls.perBankWrBursts::2                 0                       # Per bank write bursts
system.mem_ctrls.perBankWrBursts::3                 0                       # Per bank write bursts
system.mem_ctrls.perBankWrBursts::4                 0                       # Per bank write bursts
system.mem_ctrls.perBankWrBursts::5                 0                       # Per bank write bursts
system.mem_ctrls.perBankWrBursts::6                 0                       # Per bank write bursts
system.mem_ctrls.perBankWrBursts::7                 0                       # Per bank write bursts
system.mem_ctrls.perBankWrBursts::8                 0                       # Per bank write bursts
system.mem_ctrls.perBankWrBursts::9                 0                       # Per bank write bursts
system.mem_ctrls.perBankWrBursts::10                0                       # Per bank write bursts
system.mem_ctrls.perBankWrBursts::11                0                       # Per bank write bursts
system.mem_ctrls.perBankWrBursts::12                0                       # Per bank write bursts
system.mem_ctrls.perBankWrBursts::13                0                       # Per bank write bursts
system.mem_ctrls.perBankWrBursts::14                0                       # Per bank write bursts
system.mem_ctrls.perBankWrBursts::15                0                       # Per bank write bursts
system.mem_ctrls.numRdRetry                         0                       # Number of times read queue was full causing retry
system.mem_ctrls.numWrRetry                         0                       # Number of times write queue was full causing retry
system.mem_ctrls.totGap                     215520500                       # Total gap between requests
system.mem_ctrls.readPktSize::0                     0                       # Read request sizes (log2)
system.mem_ctrls.readPktSize::1                     0                       # Read request sizes (log2)
system.mem_ctrls.readPktSize::2                     0                       # Read request sizes (log2)
system.mem_ctrls.readPktSize::3                     0                       # Read request sizes (log2)
system.mem_ctrls.readPktSize::4                     0                       # Read request sizes (log2)
system.mem_ctrls.readPktSize::5                     0                       # Read request sizes (log2)
system.mem_ctrls.readPktSize::6                  3476                       # Read request sizes (log2)
system.mem_ctrls.writePktSize::0                    0                       # Write request sizes (log2)
system.mem_ctrls.writePktSize::1                    0                       # Write request sizes (log2)
system.mem_ctrls.writePktSize::2                    0                       # Write request sizes (log2)
system.mem_ctrls.writePktSize::3                    0                       # Write request sizes (log2)
system.mem_ctrls.writePktSize::4                    0                       # Write request sizes (log2)
system.mem_ctrls.writePktSize::5                    0                       # Write request sizes (log2)
system.mem_ctrls.writePktSize::6                    0                       # Write request sizes (log2)
system.mem_ctrls.rdQLenPdf::0                    2154                       # What read queue length does an incoming req see
system.mem_ctrls.rdQLenPdf::1                     889                       # What read queue length does an incoming req see
system.mem_ctrls.rdQLenPdf::2                     334                       # What read queue length does an incoming req see
system.mem_ctrls.rdQLenPdf::3                      81                       # What read queue length does an incoming req see
system.mem_ctrls.rdQLenPdf::4                      10                       # What read queue length does an incoming req see
system.mem_ctrls.rdQLenPdf::5                       5                       # What read queue length does an incoming req see
system.mem_ctrls.rdQLenPdf::6                       1                       # What read queue length does an incoming req see
system.mem_ctrls.rdQLenPdf::7                       1                       # What read queue length does an incoming req see
system.mem_ctrls.rdQLenPdf::8                       1                       # What read queue length does an incoming req see
system.mem_ctrls.rdQLenPdf::9                       0                       # What read queue length does an incoming req see
system.mem_ctrls.rdQLenPdf::10                      0                       # What read queue length does an incoming req see
system.mem_ctrls.rdQLenPdf::11                      0                       # What read queue length does an incoming req see
system.mem_ctrls.rdQLenPdf::12                      0                       # What read queue length does an incoming req see
system.mem_ctrls.rdQLenPdf::13                      0                       # What read queue length does an incoming req see
system.mem_ctrls.rdQLenPdf::14                      0                       # What read queue length does an incoming req see
system.mem_ctrls.rdQLenPdf::15                      0                       # What read queue length does an incoming req see
system.mem_ctrls.rdQLenPdf::16                      0                       # What read queue length does an incoming req see
system.mem_ctrls.rdQLenPdf::17                      0                       # What read queue length does an incoming req see
system.mem_ctrls.rdQLenPdf::18                      0                       # What read queue length does an incoming req see
system.mem_ctrls.rdQLenPdf::19                      0                       # What read queue length does an incoming req see
system.mem_ctrls.rdQLenPdf::20                      0                       # What read queue length does an incoming req see
system.mem_ctrls.rdQLenPdf::21                      0                       # What read queue length does an incoming req see
system.mem_ctrls.rdQLenPdf::22                      0                       # What read queue length does an incoming req see
system.mem_ctrls.rdQLenPdf::23                      0                       # What read queue length does an incoming req see
system.mem_ctrls.rdQLenPdf::24                      0                       # What read queue length does an incoming req see
system.mem_ctrls.rdQLenPdf::25                      0                       # What read queue length does an incoming req see
system.mem_ctrls.rdQLenPdf::26                      0                       # What read queue length does an incoming req see
system.mem_ctrls.rdQLenPdf::27                      0                       # What read queue length does an incoming req see
system.mem_ctrls.rdQLenPdf::28                      0                       # What read queue length does an incoming req see
system.mem_ctrls.rdQLenPdf::29                      0                       # What read queue length does an incoming req see
system.mem_ctrls.rdQLenPdf::30                      0                       # What read queue length does an incoming req see
system.mem_ctrls.rdQLenPdf::31                      0                       # What read queue length does an incoming req see
system.mem_ctrls.wrQLenPdf::0                       0                       # What write queue length does an incoming req see
system.mem_ctrls.wrQLenPdf::1                       0                       # What write queue length does an incoming req see
system.mem_ctrls.wrQLenPdf::2                       0                       # What write queue length does an incoming req see
system.mem_ctrls.wrQLenPdf::3                       0                       # What write queue length does an incoming req see
system.mem_ctrls.wrQLenPdf::4                       0                       # What write queue length does an incoming req see
system.mem_ctrls.wrQLenPdf::5                       0                       # What write queue length does an incoming req see
system.mem_ctrls.wrQLenPdf::6                       0                       # What write queue length does an incoming req see
system.mem_ctrls.wrQLenPdf::7                       0                       # What write queue length does an incoming req see
system.mem_ctrls.wrQLenPdf::8                       0                       # What write queue length does an incoming req see
system.mem_ctrls.wrQLenPdf::9                       0                       # What write queue length does an incoming req see
system.mem_ctrls.wrQLenPdf::10                      0                       # What write queue length does an incoming req see
system.mem_ctrls.wrQLenPdf::11                      0                       # What write queue length does an incoming req see
system.mem_ctrls.wrQLenPdf::12                      0                       # What write queue length does an incoming req see
system.mem_ctrls.wrQLenPdf::13                      0                       # What write queue length does an incoming req see
system.mem_ctrls.wrQLenPdf::14                      0                       # What write queue length does an incoming req see
system.mem_ctrls.wrQLenPdf::15                      0                       # What write queue length does an incoming req see
system.mem_ctrls.wrQLenPdf::16                      0                       # What write queue length does an incoming req see
system.mem_ctrls.wrQLenPdf::17                      0                       # What write queue length does an incoming req see
system.mem_ctrls.wrQLenPdf::18                      0                       # What write queue length does an incoming req see
system.mem_ctrls.wrQLenPdf::19                      0                       # What write queue length does an incoming req see
system.mem_ctrls.wrQLenPdf::20                      0                       # What write queue length does an incoming req see
system.mem_ctrls.wrQLenPdf::21                      0                       # What write queue length does an incoming req see
system.mem_ctrls.wrQLenPdf::22                      0                       # What write queue length does an incoming req see
system.mem_ctrls.wrQLenPdf::23                      0                       # What write queue length does an incoming req see
system.mem_ctrls.wrQLenPdf::24                      0                       # What write queue length does an incoming req see
system.mem_ctrls.wrQLenPdf::25                      0                       # What write queue length does an incoming req see
system.mem_ctrls.wrQLenPdf::26                      0                       # What write queue length does an incoming req see
system.mem_ctrls.wrQLenPdf::27                      0                       # What write queue length does an incoming req see
system.mem_ctrls.wrQLenPdf::28                      0                       # What write queue length does an incoming req see
system.mem_ctrls.wrQLenPdf::29                      0                       # What write queue length does an incoming req see
system.mem_ctrls.wrQLenPdf::30                      0                       # What write queue length does an incoming req see
system.mem_ctrls.wrQLenPdf::31                      0                       # What write queue length does an incoming req see
system.mem_ctrls.wrQLenPdf::32                      0                       # What write queue length does an incoming req see
system.mem_ctrls.wrQLenPdf::33                      0                       # What write queue length does an incoming req see
system.mem_ctrls.wrQLenPdf::34                      0                       # What write queue length does an incoming req see
system.mem_ctrls.wrQLenPdf::35                      0                       # What write queue length does an incoming req see
system.mem_ctrls.wrQLenPdf::36                      0                       # What write queue length does an incoming req see
system.mem_ctrls.wrQLenPdf::37                      0                       # What write queue length does an incoming req see
system.mem_ctrls.wrQLenPdf::38                      0                       # What write queue length does an incoming req see
system.mem_ctrls.wrQLenPdf::39                      0                       # What write queue length does an incoming req see
system.mem_ctrls.wrQLenPdf::40                      0                       # What write queue length does an incoming req see
system.mem_ctrls.wrQLenPdf::41                      0                       # What write queue length does an incoming req see
system.mem_ctrls.wrQLenPdf::42                      0                       # What write queue length does an incoming req see
system.mem_ctrls.wrQLenPdf::43                      0                       # What write queue length does an incoming req see
system.mem_ctrls.wrQLenPdf::44                      0                       # What write queue length does an incoming req see
system.mem_ctrls.wrQLenPdf::45                      0                       # What write queue length does an incoming req see
system.mem_ctrls.wrQLenPdf::46                      0                       # What write queue length does an incoming req see
system.mem_ctrls.wrQLenPdf::47                      0                       # What write queue length does an incoming req see
system.mem_ctrls.wrQLenPdf::48                      0                       # What write queue length does an incoming req see
system.mem_ctrls.wrQLenPdf::49                      0                       # What write queue length does an incoming req see
system.mem_ctrls.wrQLenPdf::50                      0                       # What write queue length does an incoming req see
system.mem_ctrls.wrQLenPdf::51                      0                       # What write queue length does an incoming req see
system.mem_ctrls.wrQLenPdf::52                      0                       # What write queue length does an incoming req see
system.mem_ctrls.wrQLenPdf::53                      0                       # What write queue length does an incoming req see
system.mem_ctrls.wrQLenPdf::54                      0                       # What write queue length does an incoming req see
system.mem_ctrls.wrQLenPdf::55                      0                       # What write queue length does an incoming req see
system.mem_ctrls.wrQLenPdf::56                      0                       # What write queue length does an incoming req see
system.mem_ctrls.wrQLenPdf::57                      0                       # What write queue length does an incoming req see
system.mem_ctrls.wrQLenPdf::58                      0                       # What write queue length does an incoming req see
system.mem_ctrls.wrQLenPdf::59                      0                       # What write queue length does an incoming req see
system.mem_ctrls.wrQLenPdf::60                      0                       # What write queue length does an incoming req see
system.mem_ctrls.wrQLenPdf::61                      0                       # What write queue length does an incoming req see
system.mem_ctrls.wrQLenPdf::62                      0                       # What write queue length does an incoming req see
system.mem_ctrls.wrQLenPdf::63                      0                       # What write queue length does an incoming req see
system.mem_ctrls.bytesPerActivate::samples          523                       # Bytes accessed per row activation
system.mem_ctrls.bytesPerActivate::mean    422.669216                       # Bytes accessed per row activation
system.mem_ctrls.bytesPerActivate::gmean   246.303385                       # Bytes accessed per row activation
system.mem_ctrls.bytesPerActivate::stdev   387.934588                       # Bytes accessed per row activation
system.mem_ctrls.bytesPerActivate::0-127          151     28.87%     28.87% # Bytes accessed per row activation
system.mem_ctrls.bytesPerActivate::128-255          112     21.41%     50.29% # Bytes accessed per row activation
system.mem_ctrls.bytesPerActivate::256-383           46      8.80%     59.08% # Bytes accessed per row activation
system.mem_ctrls.bytesPerActivate::384-511           23      4.40%     63.48% # Bytes accessed per row activation
system.mem_ctrls.bytesPerActivate::512-639           20      3.82%     67.30% # Bytes accessed per row activation
system.mem_ctrls.bytesPerActivate::640-767           28      5.35%     72.66% # Bytes accessed per row activation
system.mem_ctrls.bytesPerActivate::768-895           11      2.10%     74.76% # Bytes accessed per row activation
system.mem_ctrls.bytesPerActivate::896-1023           15      2.87%     77.63% # Bytes accessed per row activation
system.mem_ctrls.bytesPerActivate::1024-1151          117     22.37%    100.00% # Bytes accessed per row activation
system.mem_ctrls.bytesPerActivate::total          523                       # Bytes accessed per row activation
system.mem_ctrls.totQLat                     42867500                       # Total ticks spent queuing
system.mem_ctrls.totMemAccLat               108042500                       # Total ticks spent from burst creation until serviced by the DRAM
system.mem_ctrls.totBusLat                   17380000                       # Total ticks spent in databus transfers
system.mem_ctrls.avgQLat                     12332.42                       # Average queueing delay per DRAM burst
system.mem_ctrls.avgBusLat                    5000.00                       # Average bus latency per DRAM burst
system.mem_ctrls.avgMemAccLat                31082.42                       # Average memory access latency per DRAM burst
system.mem_ctrls.avgRdBW                      1031.90                       # Average DRAM read bandwidth in MiByte/s
system.mem_ctrls.avgWrBW                         0.00                       # Average achieved write bandwidth in MiByte/s
system.mem_ctrls.avgRdBWSys                   1031.90                       # Average system read bandwidth in MiByte/s
system.mem_ctrls.avgWrBWSys                      0.00                       # Average system write bandwidth in MiByte/s
system.mem_ctrls.peakBW                      12800.00                       # Theoretical peak bandwidth in MiByte/s
system.mem_ctrls.busUtil                         8.06                       # Data bus utilization in percentage
system.mem_ctrls.busUtilRead                     8.06                       # Data bus utilization in percentage for reads
system.mem_ctrls.busUtilWrite                    0.00                       # Data bus utilization in percentage for writes
system.mem_ctrls.avgRdQLen                       1.48                       # Average read queue length when enqueuing
system.mem_ctrls.avgWrQLen                       0.00                       # Average write queue length when enqueuing
system.mem_ctrls.readRowHits                     2946                       # Number of row buffer hits during reads
system.mem_ctrls.writeRowHits                       0                       # Number of row buffer hits during writes
system.mem_ctrls.readRowHitRate                 84.75                       # Row buffer hit rate for reads
system.mem_ctrls.writeRowHitRate                  nan                       # Row buffer hit rate for writes
system.mem_ctrls.avgGap                      62002.45                       # Average gap between requests
system.mem_ctrls.pageHitRate                    84.75                       # Row buffer hit rate, read and write combined
system.mem_ctrls_0.actEnergy                  2099160                       # Energy for activate commands per rank (pJ)
system.mem_ctrls_0.preEnergy                  1108140                       # Energy for precharge commands per rank (pJ)
system.mem_ctrls_0.readEnergy                13487460                       # Energy for read commands per rank (pJ)
system.mem_ctrls_0.writeEnergy                      0                       # Energy for write commands per rank (pJ)
system.mem_ctrls_0.refreshEnergy         16595280.000000                       # Energy for refresh commands per rank (pJ)
system.mem_ctrls_0.actBackEnergy             22684860                       # Energy for active background per rank (pJ)
system.mem_ctrls_0.preBackEnergy               379680                       # Energy for precharge background per rank (pJ)
system.mem_ctrls_0.actPowerDownEnergy        68443320                       # Energy for active power-down per rank (pJ)
system.mem_ctrls_0.prePowerDownEnergy         5665920                       # Energy for precharge power-down per rank (pJ)
system.mem_ctrls_0.selfRefreshEnergy                0                       # Energy for self refresh per rank (pJ)
system.mem_ctrls_0.totalEnergy              130463820                       # Total energy per rank (pJ)
system.mem_ctrls_0.averagePower            605.158353                       # Core power per rank (mW)
system.mem_ctrls_0.totalIdleTime            164708250                       # Total Idle time Per DRAM Rank
system.mem_ctrls_0.memoryStateTime::IDLE       136500                       # Time in different power states
system.mem_ctrls_0.memoryStateTime::REF       7020000                       # Time in different power states
system.mem_ctrls_0.memoryStateTime::SREF            0                       # Time in different power states
system.mem_ctrls_0.memoryStateTime::PRE_PDN     14751000                       # Time in different power states
system.mem_ctrls_0.memoryStateTime::ACT      43587500                       # Time in different power states
system.mem_ctrls_0.memoryStateTime::ACT_PDN    150091000                       # Time in different power states
system.mem_ctrls_1.actEnergy                  1685040                       # Energy for activate commands per rank (pJ)
system.mem_ctrls_1.preEnergy                   876645                       # Energy for precharge commands per rank (pJ)
system.mem_ctrls_1.readEnergy                11331180                       # Energy for read commands per rank (pJ)
system.mem_ctrls_1.writeEnergy                      0                       # Energy for write commands per rank (pJ)
system.mem_ctrls_1.refreshEnergy         15980640.000000                       # Energy for refresh commands per rank (pJ)
system.mem_ctrls_1.actBackEnergy             21034140                       # Energy for active background per rank (pJ)
system.mem_ctrls_1.preBackEnergy              1324320                       # Energy for precharge background per rank (pJ)
system.mem_ctrls_1.actPowerDownEnergy        61085190                       # Energy for active power-down per rank (pJ)
system.mem_ctrls_1.prePowerDownEnergy         6610560                       # Energy for precharge power-down per rank (pJ)
system.mem_ctrls_1.selfRefreshEnergy          4112940                       # Energy for self refresh per rank (pJ)
system.mem_ctrls_1.totalEnergy              124040655                       # Total energy per rank (pJ)
system.mem_ctrls_1.averagePower            575.364408                       # Core power per rank (mW)
system.mem_ctrls_1.totalIdleTime            166010250                       # Total Idle time Per DRAM Rank
system.mem_ctrls_1.memoryStateTime::IDLE      2395500                       # Time in different power states
system.mem_ctrls_1.memoryStateTime::REF       6766000                       # Time in different power states
system.mem_ctrls_1.memoryStateTime::SREF     14836500                       # Time in different power states
system.mem_ctrls_1.memoryStateTime::PRE_PDN     17215500                       # Time in different power states
system.mem_ctrls_1.memoryStateTime::ACT      40384000                       # Time in different power states
system.mem_ctrls_1.memoryStateTime::ACT_PDN    133988500                       # Time in different power states
system.pwrStateResidencyTicks::UNDEFINED    215586000                       # Cumulative time (in ticks) in various power states
system.cpu.branchPred.lookups                  103839                       # Number of BP lookups
system.cpu.branchPred.condPredicted            103839                       # Number of conditional branches predicted
system.cpu.branchPred.condIncorrect              9140                       # Number of conditional branches incorrect
system.cpu.branchPred.BTBLookups                83149                       # Number of BTB lookups
system.cpu.branchPred.BTBHits                       0                       # Number of BTB hits
system.cpu.branchPred.BTBCorrect                    0                       # Number of correct BTB predictions (this stat may not work properly.
system.cpu.branchPred.BTBHitPct              0.000000                       # BTB Hit Percentage
system.cpu.branchPred.usedRAS                    3368                       # Number of times the RAS was used to get a target.
system.cpu.branchPred.RASInCorrect                540                       # Number of incorrect RAS predictions.
system.cpu.branchPred.indirectLookups           83149                       # Number of indirect predictor lookups.
system.cpu.branchPred.indirectHits              31870                       # Number of indirect target hits.
system.cpu.branchPred.indirectMisses            51279                       # Number of indirect misses.
system.cpu.branchPredindirectMispredicted         4998                       # Number of mispredicted indirect branches.
system.cpu_voltage_domain.voltage                   1                       # Voltage in Volts
system.cpu.clk_domain.clock                       500                       # Clock period in ticks
system.cpu.dtb.walker.pwrStateResidencyTicks::UNDEFINED    215586000                       # Cumulative time (in ticks) in various power states
system.cpu.apic_clk_domain.clock                 8000                       # Clock period in ticks
system.cpu.interrupts.pwrStateResidencyTicks::UNDEFINED    215586000                       # Cumulative time (in ticks) in various power states
system.cpu.itb.walker.pwrStateResidencyTicks::UNDEFINED    215586000                       # Cumulative time (in ticks) in various power states
system.cpu.workload.num_syscalls                   72                       # Number of system calls
system.cpu.pwrStateResidencyTicks::ON       215586000                       # Cumulative time (in ticks) in various power states
system.cpu.numCycles                           431173                       # number of cpu cycles simulated
system.cpu.numWorkItemsStarted                      0                       # number of work items this cpu started
system.cpu.numWorkItemsCompleted                    0                       # number of work items this cpu completed
system.cpu.fetch.icacheStallCycles              83968                       # Number of cycles fetch is stalled on an Icache miss
system.cpu.fetch.Insts                         474508                       # Number of instructions fetch has processed
system.cpu.fetch.Branches                      103839                       # Number of branches that fetch encountered
system.cpu.fetch.predictedBranches              35238                       # Number of branches that fetch has predicted taken
system.cpu.fetch.Cycles                        265116                       # Number of cycles fetch has run and was not squashing or blocked
system.cpu.fetch.SquashCycles                   18539                       # Number of cycles fetch has spent squashing
system.cpu.fetch.MiscStallCycles                 7000                       # Number of cycles fetch has spent waiting on interrupts, or bad addresses, or out of MSHRs
system.cpu.fetch.PendingTrapStallCycles           530                       # Number of stall cycles due to pending traps
system.cpu.fetch.PendingQuiesceStallCycles           15                       # Number of stall cycles due to pending quiesce instructions
system.cpu.fetch.IcacheWaitRetryStallCycles         5976                       # Number of stall cycles due to full MSHR
system.cpu.fetch.CacheLines                     56675                       # Number of cache lines fetched
system.cpu.fetch.IcacheSquashes                  2821                       # Number of outstanding Icache misses that were squashed
system.cpu.fetch.rateDist::samples             371874                       # Number of instructions fetched each cycle (Total)
system.cpu.fetch.rateDist::mean              2.390786                       # Number of instructions fetched each cycle (Total)
system.cpu.fetch.rateDist::stdev             3.417446                       # Number of instructions fetched each cycle (Total)
system.cpu.fetch.rateDist::underflows               0      0.00%      0.00% # Number of instructions fetched each cycle (Total)
system.cpu.fetch.rateDist::0                   234037     62.93%     62.93% # Number of instructions fetched each cycle (Total)
system.cpu.fetch.rateDist::1                     9107      2.45%     65.38% # Number of instructions fetched each cycle (Total)
system.cpu.fetch.rateDist::2                     4411      1.19%     66.57% # Number of instructions fetched each cycle (Total)
system.cpu.fetch.rateDist::3                     9276      2.49%     69.06% # Number of instructions fetched each cycle (Total)
system.cpu.fetch.rateDist::4                     6781      1.82%     70.89% # Number of instructions fetched each cycle (Total)
system.cpu.fetch.rateDist::5                     8961      2.41%     73.30% # Number of instructions fetched each cycle (Total)
system.cpu.fetch.rateDist::6                     7992      2.15%     75.45% # Number of instructions fetched each cycle (Total)
system.cpu.fetch.rateDist::7                     7039      1.89%     77.34% # Number of instructions fetched each cycle (Total)
system.cpu.fetch.rateDist::8                    84270     22.66%    100.00% # Number of instructions fetched each cycle (Total)
system.cpu.fetch.rateDist::overflows                0      0.00%    100.00% # Number of instructions fetched each cycle (Total)
system.cpu.fetch.rateDist::min_value                0                       # Number of instructions fetched each cycle (Total)
system.cpu.fetch.rateDist::max_value                8                       # Number of instructions fetched each cycle (Total)
system.cpu.fetch.rateDist::total               371874                       # Number of instructions fetched each cycle (Total)
system.cpu.fetch.branchRate                  0.240829                       # Number of branch fetches per cycle
system.cpu.fetch.rate                        1.100505                       # Number of inst fetches per cycle
system.cpu.decode.IdleCycles                    79541                       # Number of cycles decode is idle
system.cpu.decode.BlockedCycles                169106                       # Number of cycles decode is blocked
system.cpu.decode.RunCycles                    100323                       # Number of cycles decode is running
system.cpu.decode.UnblockCycles                 13635                       # Number of cycles decode is unblocking
system.cpu.decode.SquashCycles                   9269                       # Number of cycles decode is squashing
system.cpu.decode.DecodedInsts                 804766                       # Number of instructions handled by decode
system.cpu.rename.SquashCycles                   9269                       # Number of cycles rename is squashing
system.cpu.rename.IdleCycles                    88091                       # Number of cycles rename is idle
system.cpu.rename.BlockCycles                  128723                       # Number of cycles rename is blocking
system.cpu.rename.serializeStallCycles           3333                       # count of cycles rename stalled for serializing inst
system.cpu.rename.RunCycles                    103552                       # Number of cycles rename is running
system.cpu.rename.UnblockCycles                 38906                       # Number of cycles rename is unblocking
system.cpu.rename.RenamedInsts                 760805                       # Number of instructions processed by rename
system.cpu.rename.ROBFullEvents                  2030                       # Number of times rename has blocked due to ROB full
system.cpu.rename.IQFullEvents                  12899                       # Number of times rename has blocked due to IQ full
system.cpu.rename.LQFullEvents                   1302                       # Number of times rename has blocked due to LQ full
system.cpu.rename.SQFullEvents                  21312                       # Number of times rename has blocked due to SQ full
system.cpu.rename.RenamedOperands              934785                       # Number of destination operands rename has renamed
system.cpu.rename.RenameLookups               1940184                       # Number of register rename lookups that rename has made
system.cpu.rename.int_rename_lookups          1126567                       # Number of integer rename lookups
system.cpu.rename.fp_rename_lookups             19801                       # Number of floating rename lookups
system.cpu.rename.CommittedMaps                408016                       # Number of HB maps that are committed
system.cpu.rename.UndoneMaps                   526769                       # Number of HB maps that are undone due to squashing
system.cpu.rename.serializingInsts                148                       # count of serializing insts renamed
system.cpu.rename.tempSerializingInsts            159                       # count of temporary serializing insts renamed
system.cpu.rename.skidInsts                     50571                       # count of insts added to the skid buffer
system.cpu.memDep0.insertedLoads                96124                       # Number of loads inserted to the mem dependence unit.
system.cpu.memDep0.insertedStores               28635                       # Number of stores inserted to the mem dependence unit.
system.cpu.memDep0.conflictingLoads              4767                       # Number of conflicting loads.
system.cpu.memDep0.conflictingStores             1348                       # Number of conflicting stores.
system.cpu.iq.iqInstsAdded                     682556                       # Number of instructions added to the IQ (excludes non-spec)
system.cpu.iq.iqNonSpecInstsAdded                 308                       # Number of non-speculative instructions added to the IQ
system.cpu.iq.iqInstsIssued                    679413                       # Number of instructions issued
system.cpu.iq.iqSquashedInstsIssued              6750                       # Number of squashed instructions issued
system.cpu.iq.iqSquashedInstsExamined          351500                       # Number of squashed instructions iterated over during squash; mainly for profiling
system.cpu.iq.iqSquashedOperandsExamined       523486                       # Number of squashed operands that are examined and possibly removed from graph
system.cpu.iq.iqSquashedNonSpecRemoved            236                       # Number of squashed non-spec instructions that were removed
system.cpu.iq.issued_per_cycle::samples        371874                       # Number of insts issued each cycle
system.cpu.iq.issued_per_cycle::mean         1.826998                       # Number of insts issued each cycle
system.cpu.iq.issued_per_cycle::stdev        2.530971                       # Number of insts issued each cycle
system.cpu.iq.issued_per_cycle::underflows            0      0.00%      0.00% # Number of insts issued each cycle
system.cpu.iq.issued_per_cycle::0              214675     57.73%     57.73% # Number of insts issued each cycle
system.cpu.iq.issued_per_cycle::1               19083      5.13%     62.86% # Number of insts issued each cycle
system.cpu.iq.issued_per_cycle::2               16644      4.48%     67.34% # Number of insts issued each cycle
system.cpu.iq.issued_per_cycle::3               20090      5.40%     72.74% # Number of insts issued each cycle
system.cpu.iq.issued_per_cycle::4               28651      7.70%     80.44% # Number of insts issued each cycle
system.cpu.iq.issued_per_cycle::5               24248      6.52%     86.96% # Number of insts issued each cycle
system.cpu.iq.issued_per_cycle::6               21739      5.85%     92.81% # Number of insts issued each cycle
system.cpu.iq.issued_per_cycle::7               13458      3.62%     96.43% # Number of insts issued each cycle
system.cpu.iq.issued_per_cycle::8               13286      3.57%    100.00% # Number of insts issued each cycle
system.cpu.iq.issued_per_cycle::overflows            0      0.00%    100.00% # Number of insts issued each cycle
system.cpu.iq.issued_per_cycle::min_value            0                       # Number of insts issued each cycle
system.cpu.iq.issued_per_cycle::max_value            8                       # Number of insts issued each cycle
system.cpu.iq.issued_per_cycle::total          371874                       # Number of insts issued each cycle
system.cpu.iq.fu_full::No_OpClass                   0      0.00%      0.00% # attempts to use FU when none available
system.cpu.iq.fu_full::IntAlu                    6471     26.69%     26.69% # attempts to use FU when none available
system.cpu.iq.fu_full::IntMult                      0      0.00%     26.69% # attempts to use FU when none available
system.cpu.iq.fu_full::IntDiv                       0      0.00%     26.69% # attempts to use FU when none available
system.cpu.iq.fu_full::FloatAdd                    48      0.20%     26.88% # attempts to use FU when none available
system.cpu.iq.fu_full::FloatCmp                     0      0.00%     26.88% # attempts to use FU when none available
system.cpu.iq.fu_full::FloatCvt                     0      0.00%     26.88% # attempts to use FU when none available
system.cpu.iq.fu_full::FloatMult                    0      0.00%     26.88% # attempts to use FU when none available
system.cpu.iq.fu_full::FloatMultAcc                 0      0.00%     26.88% # attempts to use FU when none available
system.cpu.iq.fu_full::FloatDiv                     0      0.00%     26.88% # attempts to use FU when none available
system.cpu.iq.fu_full::FloatMisc                    0      0.00%     26.88% # attempts to use FU when none available
system.cpu.iq.fu_full::FloatSqrt                    0      0.00%     26.88% # attempts to use FU when none available
system.cpu.iq.fu_full::SimdAdd                      0      0.00%     26.88% # attempts to use FU when none available
system.cpu.iq.fu_full::SimdAddAcc                   0      0.00%     26.88% # attempts to use FU when none available
system.cpu.iq.fu_full::SimdAlu                      0      0.00%     26.88% # attempts to use FU when none available
system.cpu.iq.fu_full::SimdCmp                      0      0.00%     26.88% # attempts to use FU when none available
system.cpu.iq.fu_full::SimdCvt                      0      0.00%     26.88% # attempts to use FU when none available
system.cpu.iq.fu_full::SimdMisc                     0      0.00%     26.88% # attempts to use FU when none available
system.cpu.iq.fu_full::SimdMult                     0      0.00%     26.88% # attempts to use FU when none available
system.cpu.iq.fu_full::SimdMultAcc                  0      0.00%     26.88% # attempts to use FU when none available
system.cpu.iq.fu_full::SimdShift                    0      0.00%     26.88% # attempts to use FU when none available
system.cpu.iq.fu_full::SimdShiftAcc                 0      0.00%     26.88% # attempts to use FU when none available
system.cpu.iq.fu_full::SimdSqrt                     0      0.00%     26.88% # attempts to use FU when none available
system.cpu.iq.fu_full::SimdFloatAdd                 0      0.00%     26.88% # attempts to use FU when none available
system.cpu.iq.fu_full::SimdFloatAlu                 0      0.00%     26.88% # attempts to use FU when none available
system.cpu.iq.fu_full::SimdFloatCmp                 0      0.00%     26.88% # attempts to use FU when none available
system.cpu.iq.fu_full::SimdFloatCvt                 0      0.00%     26.88% # attempts to use FU when none available
system.cpu.iq.fu_full::SimdFloatDiv                 0      0.00%     26.88% # attempts to use FU when none available
system.cpu.iq.fu_full::SimdFloatMisc                0      0.00%     26.88% # attempts to use FU when none available
system.cpu.iq.fu_full::SimdFloatMult                0      0.00%     26.88% # attempts to use FU when none available
system.cpu.iq.fu_full::SimdFloatMultAcc             0      0.00%     26.88% # attempts to use FU when none available
system.cpu.iq.fu_full::SimdFloatSqrt                0      0.00%     26.88% # attempts to use FU when none available
system.cpu.iq.fu_full::MemRead                  16811     69.33%     96.21% # attempts to use FU when none available
system.cpu.iq.fu_full::MemWrite                   755      3.11%     99.32% # attempts to use FU when none available
system.cpu.iq.fu_full::FloatMemRead                81      0.33%     99.66% # attempts to use FU when none available
system.cpu.iq.fu_full::FloatMemWrite               83      0.34%    100.00% # attempts to use FU when none available
system.cpu.iq.fu_full::IprAccess                    0      0.00%    100.00% # attempts to use FU when none available
system.cpu.iq.fu_full::InstPrefetch                 0      0.00%    100.00% # attempts to use FU when none available
system.cpu.iq.FU_type_0::No_OpClass              4405      0.65%      0.65% # Type of FU issued
system.cpu.iq.FU_type_0::IntAlu                447673     65.89%     66.54% # Type of FU issued
system.cpu.iq.FU_type_0::IntMult                  115      0.02%     66.56% # Type of FU issued
system.cpu.iq.FU_type_0::IntDiv                  1452      0.21%     66.77% # Type of FU issued
system.cpu.iq.FU_type_0::FloatAdd                5425      0.80%     67.57% # Type of FU issued
system.cpu.iq.FU_type_0::FloatCmp                   0      0.00%     67.57% # Type of FU issued
system.cpu.iq.FU_type_0::FloatCvt                   0      0.00%     67.57% # Type of FU issued
system.cpu.iq.FU_type_0::FloatMult                  0      0.00%     67.57% # Type of FU issued
system.cpu.iq.FU_type_0::FloatMultAcc               0      0.00%     67.57% # Type of FU issued
system.cpu.iq.FU_type_0::FloatDiv                   0      0.00%     67.57% # Type of FU issued
system.cpu.iq.FU_type_0::FloatMisc                  0      0.00%     67.57% # Type of FU issued
system.cpu.iq.FU_type_0::FloatSqrt                  0      0.00%     67.57% # Type of FU issued
system.cpu.iq.FU_type_0::SimdAdd                    0      0.00%     67.57% # Type of FU issued
system.cpu.iq.FU_type_0::SimdAddAcc                 0      0.00%     67.57% # Type of FU issued
system.cpu.iq.FU_type_0::SimdAlu                    0      0.00%     67.57% # Type of FU issued
system.cpu.iq.FU_type_0::SimdCmp                    0      0.00%     67.57% # Type of FU issued
system.cpu.iq.FU_type_0::SimdCvt                    0      0.00%     67.57% # Type of FU issued
system.cpu.iq.FU_type_0::SimdMisc                   0      0.00%     67.57% # Type of FU issued
system.cpu.iq.FU_type_0::SimdMult                   0      0.00%     67.57% # Type of FU issued
system.cpu.iq.FU_type_0::SimdMultAcc                0      0.00%     67.57% # Type of FU issued
system.cpu.iq.FU_type_0::SimdShift                  0      0.00%     67.57% # Type of FU issued
system.cpu.iq.FU_type_0::SimdShiftAcc               0      0.00%     67.57% # Type of FU issued
system.cpu.iq.FU_type_0::SimdSqrt                   0      0.00%     67.57% # Type of FU issued
system.cpu.iq.FU_type_0::SimdFloatAdd               0      0.00%     67.57% # Type of FU issued
system.cpu.iq.FU_type_0::SimdFloatAlu               0      0.00%     67.57% # Type of FU issued
system.cpu.iq.FU_type_0::SimdFloatCmp               0      0.00%     67.57% # Type of FU issued
system.cpu.iq.FU_type_0::SimdFloatCvt               0      0.00%     67.57% # Type of FU issued
system.cpu.iq.FU_type_0::SimdFloatDiv               0      0.00%     67.57% # Type of FU issued
system.cpu.iq.FU_type_0::SimdFloatMisc              0      0.00%     67.57% # Type of FU issued
system.cpu.iq.FU_type_0::SimdFloatMult              0      0.00%     67.57% # Type of FU issued
system.cpu.iq.FU_type_0::SimdFloatMultAcc            0      0.00%     67.57% # Type of FU issued
system.cpu.iq.FU_type_0::SimdFloatSqrt              0      0.00%     67.57% # Type of FU issued
system.cpu.iq.FU_type_0::MemRead               193714     28.51%     96.08% # Type of FU issued
system.cpu.iq.FU_type_0::MemWrite               22499      3.31%     99.39% # Type of FU issued
system.cpu.iq.FU_type_0::FloatMemRead            3583      0.53%     99.92% # Type of FU issued
system.cpu.iq.FU_type_0::FloatMemWrite            547      0.08%    100.00% # Type of FU issued
system.cpu.iq.FU_type_0::IprAccess                  0      0.00%    100.00% # Type of FU issued
system.cpu.iq.FU_type_0::InstPrefetch               0      0.00%    100.00% # Type of FU issued
system.cpu.iq.FU_type_0::total                 679413                       # Type of FU issued
system.cpu.iq.rate                           1.575732                       # Inst issue rate
system.cpu.iq.fu_busy_cnt                       24249                       # FU busy when requested
system.cpu.iq.fu_busy_rate                   0.035691                       # FU busy rate (busy events/executed inst)
system.cpu.iq.int_inst_queue_reads            1741425                       # Number of integer instruction queue reads
system.cpu.iq.int_inst_queue_writes           1017737                       # Number of integer instruction queue writes
system.cpu.iq.int_inst_queue_wakeup_accesses       523309                       # Number of integer instruction queue wakeup accesses
system.cpu.iq.fp_inst_queue_reads               20274                       # Number of floating instruction queue reads
system.cpu.iq.fp_inst_queue_writes              16740                       # Number of floating instruction queue writes
system.cpu.iq.fp_inst_queue_wakeup_accesses         7743                       # Number of floating instruction queue wakeup accesses
system.cpu.iq.int_alu_accesses                 689149                       # Number of integer alu accesses
system.cpu.iq.fp_alu_accesses                   10108                       # Number of floating point alu accesses
system.cpu.iew.lsq.thread0.forwLoads             4483                       # Number of loads that had data forwarded from stores
system.cpu.iew.lsq.thread0.invAddrLoads             0                       # Number of loads ignored due to an invalid address
system.cpu.iew.lsq.thread0.squashedLoads        50278                       # Number of loads squashed
system.cpu.iew.lsq.thread0.ignoredResponses           27                       # Number of memory responses ignored because the instruction is squashed
system.cpu.iew.lsq.thread0.memOrderViolation          119                       # Number of memory ordering violations
system.cpu.iew.lsq.thread0.squashedStores        12038                       # Number of stores squashed
system.cpu.iew.lsq.thread0.invAddrSwpfs             0                       # Number of software prefetches ignored due to an invalid address
system.cpu.iew.lsq.thread0.blockedLoads             0                       # Number of blocked loads due to partial load-store forwarding
system.cpu.iew.lsq.thread0.rescheduledLoads           31                       # Number of loads that were rescheduled
system.cpu.iew.lsq.thread0.cacheBlocked        116715                       # Number of times an access to memory failed due to the cache being blocked
system.cpu.iew.iewIdleCycles                        0                       # Number of cycles IEW is idle
system.cpu.iew.iewSquashCycles                   9269                       # Number of cycles IEW is squashing
system.cpu.iew.iewBlockCycles                   98842                       # Number of cycles IEW is blocking
system.cpu.iew.iewUnblockCycles                  4156                       # Number of cycles IEW is unblocking
system.cpu.iew.iewDispatchedInsts              682864                       # Number of instructions dispatched to IQ
system.cpu.iew.iewDispSquashedInsts              2176                       # Number of squashed instructions skipped by dispatch
system.cpu.iew.iewDispLoadInsts                 96124                       # Number of dispatched load instructions
system.cpu.iew.iewDispStoreInsts                28635                       # Number of dispatched store instructions
system.cpu.iew.iewDispNonSpecInsts                192                       # Number of dispatched non-speculative instructions
system.cpu.iew.iewIQFullEvents                    505                       # Number of times the IQ has become full, causing a stall
system.cpu.iew.iewLSQFullEvents                  3289                       # Number of times the LSQ has become full, causing a stall
system.cpu.iew.memOrderViolationEvents            119                       # Number of memory order violations
system.cpu.iew.predictedTakenIncorrect           2093                       # Number of branches that were predicted taken incorrectly
system.cpu.iew.predictedNotTakenIncorrect         9508                       # Number of branches that were predicted not taken incorrectly
system.cpu.iew.branchMispredicts                11601                       # Number of branch mispredicts detected at execute
system.cpu.iew.iewExecutedInsts                657217                       # Number of executed instructions
system.cpu.iew.iewExecLoadInsts                190858                       # Number of load instructions executed
system.cpu.iew.iewExecSquashedInsts             22196                       # Number of squashed instructions skipped in execute
system.cpu.iew.exec_swp                             0                       # number of swp insts executed
system.cpu.iew.exec_nop                             0                       # number of nop insts executed
system.cpu.iew.exec_refs                       212655                       # number of memory reference insts executed
system.cpu.iew.exec_branches                    51587                       # Number of branches executed
system.cpu.iew.exec_stores                      21797                       # Number of stores executed
system.cpu.iew.exec_rate                     1.524254                       # Inst execution rate
system.cpu.iew.wb_sent                         536286                       # cumulative count of insts sent to commit
system.cpu.iew.wb_count                        531052                       # cumulative count of insts written-back
system.cpu.iew.wb_producers                    415341                       # num instructions producing a value
system.cpu.iew.wb_consumers                    663981                       # num instructions consuming a value
system.cpu.iew.wb_rate                       1.231645                       # insts written-back per cycle
system.cpu.iew.wb_fanout                     0.625531                       # average fanout of values written-back
system.cpu.commit.commitSquashedInsts          351562                       # The number of squashed insts skipped by commit
system.cpu.commit.commitNonSpecStalls              72                       # The number of times commit has been forced to stall to communicate backwards
system.cpu.commit.branchMispredicts              9171                       # The number of times a branch was mispredicted
system.cpu.commit.committed_per_cycle::samples       319093                       # Number of insts commited each cycle
system.cpu.commit.committed_per_cycle::mean     1.038456                       # Number of insts commited each cycle
system.cpu.commit.committed_per_cycle::stdev     2.131323                       # Number of insts commited each cycle
system.cpu.commit.committed_per_cycle::underflows            0      0.00%      0.00% # Number of insts commited each cycle
system.cpu.commit.committed_per_cycle::0       228411     71.58%     71.58% # Number of insts commited each cycle
system.cpu.commit.committed_per_cycle::1        24812      7.78%     79.36% # Number of insts commited each cycle
system.cpu.commit.committed_per_cycle::2        11759      3.69%     83.04% # Number of insts commited each cycle
system.cpu.commit.committed_per_cycle::3        17629      5.52%     88.57% # Number of insts commited each cycle
system.cpu.commit.committed_per_cycle::4         9531      2.99%     91.55% # Number of insts commited each cycle
system.cpu.commit.committed_per_cycle::5         5860      1.84%     93.39% # Number of insts commited each cycle
system.cpu.commit.committed_per_cycle::6         2170      0.68%     94.07% # Number of insts commited each cycle
system.cpu.commit.committed_per_cycle::7         1665      0.52%     94.59% # Number of insts commited each cycle
system.cpu.commit.committed_per_cycle::8        17256      5.41%    100.00% # Number of insts commited each cycle
system.cpu.commit.committed_per_cycle::overflows            0      0.00%    100.00% # Number of insts commited each cycle
system.cpu.commit.committed_per_cycle::min_value            0                       # Number of insts commited each cycle
system.cpu.commit.committed_per_cycle::max_value            8                       # Number of insts commited each cycle
system.cpu.commit.committed_per_cycle::total       319093                       # Number of insts commited each cycle
system.cpu.commit.committedInsts               177050                       # Number of instructions committed
system.cpu.commit.committedOps                 331364                       # Number of ops (including micro ops) committed
system.cpu.commit.swp_count                         0                       # Number of s/w prefetches committed
system.cpu.commit.refs                          62443                       # Number of memory references committed
system.cpu.commit.loads                         45846                       # Number of loads committed
system.cpu.commit.membars                           0                       # Number of memory barriers committed
system.cpu.commit.branches                      37444                       # Number of branches committed
system.cpu.commit.fp_insts                       5234                       # Number of committed floating point instructions.
system.cpu.commit.int_insts                    326406                       # Number of committed integer instructions.
system.cpu.commit.function_calls                 1206                       # Number of function calls committed.
system.cpu.commit.op_class_0::No_OpClass         1556      0.47%      0.47% # Class of committed instruction
system.cpu.commit.op_class_0::IntAlu           262226     79.14%     79.60% # Class of committed instruction
system.cpu.commit.op_class_0::IntMult             105      0.03%     79.64% # Class of committed instruction
system.cpu.commit.op_class_0::IntDiv             1415      0.43%     80.06% # Class of committed instruction
system.cpu.commit.op_class_0::FloatAdd           3619      1.09%     81.16% # Class of committed instruction
system.cpu.commit.op_class_0::FloatCmp              0      0.00%     81.16% # Class of committed instruction
system.cpu.commit.op_class_0::FloatCvt              0      0.00%     81.16% # Class of committed instruction
system.cpu.commit.op_class_0::FloatMult             0      0.00%     81.16% # Class of committed instruction
system.cpu.commit.op_class_0::FloatMultAcc            0      0.00%     81.16% # Class of committed instruction
system.cpu.commit.op_class_0::FloatDiv              0      0.00%     81.16% # Class of committed instruction
system.cpu.commit.op_class_0::FloatMisc             0      0.00%     81.16% # Class of committed instruction
system.cpu.commit.op_class_0::FloatSqrt             0      0.00%     81.16% # Class of committed instruction
system.cpu.commit.op_class_0::SimdAdd               0      0.00%     81.16% # Class of committed instruction
system.cpu.commit.op_class_0::SimdAddAcc            0      0.00%     81.16% # Class of committed instruction
system.cpu.commit.op_class_0::SimdAlu               0      0.00%     81.16% # Class of committed instruction
system.cpu.commit.op_class_0::SimdCmp               0      0.00%     81.16% # Class of committed instruction
system.cpu.commit.op_class_0::SimdCvt               0      0.00%     81.16% # Class of committed instruction
system.cpu.commit.op_class_0::SimdMisc              0      0.00%     81.16% # Class of committed instruction
system.cpu.commit.op_class_0::SimdMult              0      0.00%     81.16% # Class of committed instruction
system.cpu.commit.op_class_0::SimdMultAcc            0      0.00%     81.16% # Class of committed instruction
system.cpu.commit.op_class_0::SimdShift             0      0.00%     81.16% # Class of committed instruction
system.cpu.commit.op_class_0::SimdShiftAcc            0      0.00%     81.16% # Class of committed instruction
system.cpu.commit.op_class_0::SimdSqrt              0      0.00%     81.16% # Class of committed instruction
system.cpu.commit.op_class_0::SimdFloatAdd            0      0.00%     81.16% # Class of committed instruction
system.cpu.commit.op_class_0::SimdFloatAlu            0      0.00%     81.16% # Class of committed instruction
system.cpu.commit.op_class_0::SimdFloatCmp            0      0.00%     81.16% # Class of committed instruction
system.cpu.commit.op_class_0::SimdFloatCvt            0      0.00%     81.16% # Class of committed instruction
system.cpu.commit.op_class_0::SimdFloatDiv            0      0.00%     81.16% # Class of committed instruction
system.cpu.commit.op_class_0::SimdFloatMisc            0      0.00%     81.16% # Class of committed instruction
system.cpu.commit.op_class_0::SimdFloatMult            0      0.00%     81.16% # Class of committed instruction
system.cpu.commit.op_class_0::SimdFloatMultAcc            0      0.00%     81.16% # Class of committed instruction
system.cpu.commit.op_class_0::SimdFloatSqrt            0      0.00%     81.16% # Class of committed instruction
system.cpu.commit.op_class_0::MemRead           44896     13.55%     94.70% # Class of committed instruction
system.cpu.commit.op_class_0::MemWrite          16213      4.89%     99.60% # Class of committed instruction
system.cpu.commit.op_class_0::FloatMemRead          950      0.29%     99.88% # Class of committed instruction
system.cpu.commit.op_class_0::FloatMemWrite          384      0.12%    100.00% # Class of committed instruction
system.cpu.commit.op_class_0::IprAccess             0      0.00%    100.00% # Class of committed instruction
system.cpu.commit.op_class_0::InstPrefetch            0      0.00%    100.00% # Class of committed instruction
system.cpu.commit.op_class_0::total            331364                       # Class of committed instruction
system.cpu.commit.bw_lim_events                 17256                       # number cycles where commit BW limit reached
system.cpu.rob.rob_reads                       984750                       # The number of ROB reads
system.cpu.rob.rob_writes                     1419317                       # The number of ROB writes
system.cpu.timesIdled                             749                       # Number of times that the entire CPU went into an idle state and unscheduled itself
system.cpu.idleCycles                           59299                       # Total number of cycles that the CPU has spent unscheduled due to idling
system.cpu.committedInsts                      177050                       # Number of Instructions Simulated
system.cpu.committedOps                        331364                       # Number of Ops (including micro ops) Simulated
system.cpu.cpi                               2.435318                       # CPI: Cycles Per Instruction
system.cpu.cpi_total                         2.435318                       # CPI: Total CPI of All Threads
system.cpu.ipc                               0.410624                       # IPC: Instructions Per Cycle
system.cpu.ipc_total                         0.410624                       # IPC: Total IPC of All Threads
system.cpu.int_regfile_reads                   963526                       # number of integer regfile reads
system.cpu.int_regfile_writes                  452854                       # number of integer regfile writes
system.cpu.fp_regfile_reads                     12067                       # number of floating regfile reads
system.cpu.fp_regfile_writes                     6704                       # number of floating regfile writes
system.cpu.cc_regfile_reads                    272849                       # number of cc regfile reads
system.cpu.cc_regfile_writes                   182019                       # number of cc regfile writes
system.cpu.misc_regfile_reads                  338660                       # number of misc regfile reads
system.cpu_clk_domain.clock                       500                       # Clock period in ticks
system.fpga.clk_domain.voltage_domain.voltage            1                       # Voltage in Volts
system.fpga.clk_domain.clock                     3333                       # Clock period in ticks
system.fpga.dtb.walker.pwrStateResidencyTicks::UNDEFINED    215586000                       # Cumulative time (in ticks) in various power states
system.fpga.itb.walker.pwrStateResidencyTicks::UNDEFINED    215586000                       # Cumulative time (in ticks) in various power states
system.fpga.pwrStateResidencyTicks::ON      215586000                       # Cumulative time (in ticks) in various power states
system.fpga.numCycles                               0                       # number of cpu cycles simulated
system.fpga.numWorkItemsStarted                     0                       # number of work items this cpu started
system.fpga.numWorkItemsCompleted                   0                       # number of work items this cpu completed
system.piobus.pwrStateResidencyTicks::UNDEFINED    215586000                       # Cumulative time (in ticks) in various power states
system.ruby.clk_domain.clock                      500                       # Clock period in ticks
system.ruby.pwrStateResidencyTicks::UNDEFINED    215586000                       # Cumulative time (in ticks) in various power states
system.ruby.outstanding_req_hist_seqr::bucket_size            2                      
system.ruby.outstanding_req_hist_seqr::max_bucket           19                      
system.ruby.outstanding_req_hist_seqr::samples       141639                      
system.ruby.outstanding_req_hist_seqr::mean     1.818235                      
system.ruby.outstanding_req_hist_seqr::gmean     1.616589                      
system.ruby.outstanding_req_hist_seqr::stdev     0.935460                      
system.ruby.outstanding_req_hist_seqr    |       63580     44.89%     44.89% |       69496     49.07%     93.95% |        8096      5.72%     99.67% |         424      0.30%     99.97% |          39      0.03%    100.00% |           4      0.00%    100.00% |           0      0.00%    100.00% |           0      0.00%    100.00% |           0      0.00%    100.00% |           0      0.00%    100.00%
system.ruby.outstanding_req_hist_seqr::total       141639                      
system.ruby.latency_hist_seqr::bucket_size          128                      
system.ruby.latency_hist_seqr::max_bucket         1279                      
system.ruby.latency_hist_seqr::samples         141639                      
system.ruby.latency_hist_seqr::mean          4.382472                      
system.ruby.latency_hist_seqr::gmean         1.144428                      
system.ruby.latency_hist_seqr::stdev        22.567112                      
system.ruby.latency_hist_seqr            |      140673     99.32%     99.32% |         921      0.65%     99.97% |           4      0.00%     99.97% |           9      0.01%     99.98% |          12      0.01%     99.99% |          18      0.01%    100.00% |           0      0.00%    100.00% |           1      0.00%    100.00% |           0      0.00%    100.00% |           1      0.00%    100.00%
system.ruby.latency_hist_seqr::total           141639                      
system.ruby.hit_latency_hist_seqr::bucket_size            8                      
system.ruby.hit_latency_hist_seqr::max_bucket           79                      
system.ruby.hit_latency_hist_seqr::samples       138163                      
system.ruby.hit_latency_hist_seqr::mean      1.117528                      
system.ruby.hit_latency_hist_seqr::gmean     1.016024                      
system.ruby.hit_latency_hist_seqr::stdev     1.748304                      
system.ruby.hit_latency_hist_seqr        |      137525     99.54%     99.54% |           0      0.00%     99.54% |          41      0.03%     99.57% |         530      0.38%     99.95% |          51      0.04%     99.99% |           7      0.01%     99.99% |           4      0.00%    100.00% |           2      0.00%    100.00% |           3      0.00%    100.00% |           0      0.00%    100.00%
system.ruby.hit_latency_hist_seqr::total       138163                      
system.ruby.miss_latency_hist_seqr::bucket_size          128                      
system.ruby.miss_latency_hist_seqr::max_bucket         1279                      
system.ruby.miss_latency_hist_seqr::samples         3476                      
system.ruby.miss_latency_hist_seqr::mean   134.156502                      
system.ruby.miss_latency_hist_seqr::gmean   129.697878                      
system.ruby.miss_latency_hist_seqr::stdev    58.018035                      
system.ruby.miss_latency_hist_seqr       |        2510     72.21%     72.21% |         921     26.50%     98.71% |           4      0.12%     98.82% |           9      0.26%     99.08% |          12      0.35%     99.42% |          18      0.52%     99.94% |           0      0.00%     99.94% |           1      0.03%     99.97% |           0      0.00%     99.97% |           1      0.03%    100.00%
system.ruby.miss_latency_hist_seqr::total         3476                      
system.ruby.Directory.incomplete_times_seqr         3475                      
system.ruby.dir_cntrl0.pwrStateResidencyTicks::UNDEFINED    215586000                       # Cumulative time (in ticks) in various power states
system.ruby.l1_cntrl0.L1Dcache.demand_hits        82328                       # Number of cache demand hits
system.ruby.l1_cntrl0.L1Dcache.demand_misses         2800                       # Number of cache demand misses
system.ruby.l1_cntrl0.L1Dcache.demand_accesses        85128                       # Number of cache demand accesses
system.ruby.l1_cntrl0.L1Icache.demand_hits        55197                       # Number of cache demand hits
system.ruby.l1_cntrl0.L1Icache.demand_misses         1314                       # Number of cache demand misses
system.ruby.l1_cntrl0.L1Icache.demand_accesses        56511                       # Number of cache demand accesses
system.ruby.l1_cntrl0.sequencer.pwrStateResidencyTicks::UNDEFINED    215586000                       # Cumulative time (in ticks) in various power states
system.ruby.l1_cntrl0.sequencer.store_waiting_on_load          843                       # Number of times a store aliased with a pending load
system.ruby.l1_cntrl0.sequencer.store_waiting_on_store           43                       # Number of times a store aliased with a pending store
system.ruby.l1_cntrl0.sequencer.load_waiting_on_store          265                       # Number of times a load aliased with a pending store
system.ruby.l1_cntrl0.sequencer.load_waiting_on_load       116497                       # Number of times a load aliased with a pending load
system.ruby.l1_cntrl0.pwrStateResidencyTicks::UNDEFINED    215586000                       # Cumulative time (in ticks) in various power states
system.ruby.l1_cntrl0.fully_busy_cycles           815                       # cycles for which number of transistions == max transitions
system.ruby.l1_cntrl1.L1Dcache.demand_hits            0                       # Number of cache demand hits
system.ruby.l1_cntrl1.L1Dcache.demand_misses            0                       # Number of cache demand misses
system.ruby.l1_cntrl1.L1Dcache.demand_accesses            0                       # Number of cache demand accesses
system.ruby.l1_cntrl1.L1Icache.demand_hits            0                       # Number of cache demand hits
system.ruby.l1_cntrl1.L1Icache.demand_misses            0                       # Number of cache demand misses
system.ruby.l1_cntrl1.L1Icache.demand_accesses            0                       # Number of cache demand accesses
system.ruby.l1_cntrl1.sequencer.pwrStateResidencyTicks::UNDEFINED    215586000                       # Cumulative time (in ticks) in various power states
system.ruby.l1_cntrl1.pwrStateResidencyTicks::UNDEFINED    215586000                       # Cumulative time (in ticks) in various power states
system.ruby.l2_cntrl0.L2cache.demand_hits          593                       # Number of cache demand hits
system.ruby.l2_cntrl0.L2cache.demand_misses         3521                       # Number of cache demand misses
system.ruby.l2_cntrl0.L2cache.demand_accesses         4114                       # Number of cache demand accesses
system.ruby.l2_cntrl0.pwrStateResidencyTicks::UNDEFINED    215586000                       # Cumulative time (in ticks) in various power states
system.ruby.memctrl_clk_domain.clock             1500                       # Clock period in ticks
system.ruby.network.routers0.pwrStateResidencyTicks::UNDEFINED    215586000                       # Cumulative time (in ticks) in various power states
system.ruby.network.routers0.percent_links_utilized     3.962978                      
system.ruby.network.routers0.msg_count.Request_Control::1         4114                      
system.ruby.network.routers0.msg_count.Response_Data::4         3476                      
system.ruby.network.routers0.msg_count.ResponseL2hit_Data::4          638                      
system.ruby.network.routers0.msg_count.Writeback_Data::4         2539                      
system.ruby.network.routers0.msg_count.Broadcast_Control::1         4114                      
system.ruby.network.routers0.msg_count.Persistent_Control::3          244                      
system.ruby.network.routers0.msg_bytes.Request_Control::1        32912                      
system.ruby.network.routers0.msg_bytes.Response_Data::4       250272                      
system.ruby.network.routers0.msg_bytes.ResponseL2hit_Data::4        45936                      
system.ruby.network.routers0.msg_bytes.Writeback_Data::4       182808                      
system.ruby.network.routers0.msg_bytes.Broadcast_Control::1        32912                      
system.ruby.network.routers0.msg_bytes.Persistent_Control::3         1952                      
system.ruby.network.routers1.pwrStateResidencyTicks::UNDEFINED    215586000                       # Cumulative time (in ticks) in various power states
system.ruby.network.routers1.percent_links_utilized     0.245610                      
system.ruby.network.routers1.msg_count.Broadcast_Control::1         4114                      
system.ruby.network.routers1.msg_count.Persistent_Control::3          122                      
system.ruby.network.routers1.msg_bytes.Broadcast_Control::1        32912                      
system.ruby.network.routers1.msg_bytes.Persistent_Control::3          976                      
system.ruby.network.routers2.pwrStateResidencyTicks::UNDEFINED    215586000                       # Cumulative time (in ticks) in various power states
system.ruby.network.routers2.percent_links_utilized     2.025120                      
system.ruby.network.routers2.msg_count.Request_Control::2         3521                      
system.ruby.network.routers2.msg_count.Response_Data::4         3476                      
system.ruby.network.routers2.msg_count.Persistent_Control::3          122                      
system.ruby.network.routers2.msg_bytes.Request_Control::2        28168                      
system.ruby.network.routers2.msg_bytes.Response_Data::4       250272                      
system.ruby.network.routers2.msg_bytes.Persistent_Control::3          976                      
system.ruby.network.routers3.pwrStateResidencyTicks::UNDEFINED    215586000                       # Cumulative time (in ticks) in various power states
system.ruby.network.routers3.percent_links_utilized     2.107628                      
system.ruby.network.routers3.msg_count.Request_Control::1         4114                      
system.ruby.network.routers3.msg_count.Request_Control::2         3521                      
system.ruby.network.routers3.msg_count.ResponseL2hit_Data::4          638                      
system.ruby.network.routers3.msg_count.Writeback_Data::4         2539                      
system.ruby.network.routers3.msg_count.Persistent_Control::3          122                      
system.ruby.network.routers3.msg_bytes.Request_Control::1        32912                      
system.ruby.network.routers3.msg_bytes.Request_Control::2        28168                      
system.ruby.network.routers3.msg_bytes.ResponseL2hit_Data::4        45936                      
[...]
system.ruby.ST.Directory.miss_type_mach_latency_hist_seqr::total          449                      
system.ruby.IFETCH.L1Cache.hit_type_mach_latency_hist_seqr::bucket_size            1                      
system.ruby.IFETCH.L1Cache.hit_type_mach_latency_hist_seqr::max_bucket            9                      
system.ruby.IFETCH.L1Cache.hit_type_mach_latency_hist_seqr::samples        55197                      
system.ruby.IFETCH.L1Cache.hit_type_mach_latency_hist_seqr::mean            1                      
system.ruby.IFETCH.L1Cache.hit_type_mach_latency_hist_seqr::gmean            1                      
system.ruby.IFETCH.L1Cache.hit_type_mach_latency_hist_seqr |           0      0.00%      0.00% |       55197    100.00%    100.00% |           0      0.00%    100.00% |           0      0.00%    100.00% |           0      0.00%    100.00% |           0      0.00%    100.00% |           0      0.00%    100.00% |           0      0.00%    100.00% |           0      0.00%    100.00% |           0      0.00%    100.00%
system.ruby.IFETCH.L1Cache.hit_type_mach_latency_hist_seqr::total        55197                      
system.ruby.IFETCH.L2Cache.hit_type_mach_latency_hist_seqr::bucket_size            4                      
system.ruby.IFETCH.L2Cache.hit_type_mach_latency_hist_seqr::max_bucket           39                      
system.ruby.IFETCH.L2Cache.hit_type_mach_latency_hist_seqr::samples          235                      
system.ruby.IFETCH.L2Cache.hit_type_mach_latency_hist_seqr::mean    24.425532                      
system.ruby.IFETCH.L2Cache.hit_type_mach_latency_hist_seqr::gmean    24.375686                      
system.ruby.IFETCH.L2Cache.hit_type_mach_latency_hist_seqr::stdev     1.673635                      
system.ruby.IFETCH.L2Cache.hit_type_mach_latency_hist_seqr |           0      0.00%      0.00% |           0      0.00%      0.00% |           0      0.00%      0.00% |           0      0.00%      0.00% |           0      0.00%      0.00% |           3      1.28%      1.28% |         215     91.49%     92.77% |          13      5.53%     98.30% |           4      1.70%    100.00% |           0      0.00%    100.00%
system.ruby.IFETCH.L2Cache.hit_type_mach_latency_hist_seqr::total          235                      
system.ruby.IFETCH.Directory.miss_type_mach_latency_hist_seqr::bucket_size          128                      
system.ruby.IFETCH.Directory.miss_type_mach_latency_hist_seqr::max_bucket         1279                      
system.ruby.IFETCH.Directory.miss_type_mach_latency_hist_seqr::samples         1079                      
system.ruby.IFETCH.Directory.miss_type_mach_latency_hist_seqr::mean   134.088044                      
system.ruby.IFETCH.Directory.miss_type_mach_latency_hist_seqr::gmean   130.372821                      
system.ruby.IFETCH.Directory.miss_type_mach_latency_hist_seqr::stdev    48.075955                      
system.ruby.IFETCH.Directory.miss_type_mach_latency_hist_seqr |         788     73.03%     73.03% |         277     25.67%     98.70% |           2      0.19%     98.89% |           6      0.56%     99.44% |           4      0.37%     99.81% |           2      0.19%    100.00% |           0      0.00%    100.00% |           0      0.00%    100.00% |           0      0.00%    100.00% |           0      0.00%    100.00%
system.ruby.IFETCH.Directory.miss_type_mach_latency_hist_seqr::total         1079                      
system.ruby.RMW_Read.L1Cache.hit_type_mach_latency_hist_seqr::bucket_size            1                      
system.ruby.RMW_Read.L1Cache.hit_type_mach_latency_hist_seqr::max_bucket            9                      
system.ruby.RMW_Read.L1Cache.hit_type_mach_latency_hist_seqr::samples          842                      
system.ruby.RMW_Read.L1Cache.hit_type_mach_latency_hist_seqr::mean            1                      
system.ruby.RMW_Read.L1Cache.hit_type_mach_latency_hist_seqr::gmean            1                      
system.ruby.RMW_Read.L1Cache.hit_type_mach_latency_hist_seqr |           0      0.00%      0.00% |         842    100.00%    100.00% |           0      0.00%    100.00% |           0      0.00%    100.00% |           0      0.00%    100.00% |           0      0.00%    100.00% |           0      0.00%    100.00% |           0      0.00%    100.00% |           0      0.00%    100.00% |           0      0.00%    100.00%
system.ruby.RMW_Read.L1Cache.hit_type_mach_latency_hist_seqr::total          842                      
system.ruby.RMW_Read.L2Cache.hit_type_mach_latency_hist_seqr::bucket_size            8                      
system.ruby.RMW_Read.L2Cache.hit_type_mach_latency_hist_seqr::max_bucket           79                      
system.ruby.RMW_Read.L2Cache.hit_type_mach_latency_hist_seqr::samples           15                      
system.ruby.RMW_Read.L2Cache.hit_type_mach_latency_hist_seqr::mean    25.600000                      
system.ruby.RMW_Read.L2Cache.hit_type_mach_latency_hist_seqr::gmean    24.471603                      
system.ruby.RMW_Read.L2Cache.hit_type_mach_latency_hist_seqr::stdev     9.108865                      
system.ruby.RMW_Read.L2Cache.hit_type_mach_latency_hist_seqr |           0      0.00%      0.00% |           0      0.00%      0.00% |           8     53.33%     53.33% |           5     33.33%     86.67% |           0      0.00%     86.67% |           1      6.67%     93.33% |           1      6.67%    100.00% |           0      0.00%    100.00% |           0      0.00%    100.00% |           0      0.00%    100.00%
system.ruby.RMW_Read.L2Cache.hit_type_mach_latency_hist_seqr::total           15                      
system.ruby.RMW_Read.Directory.miss_type_mach_latency_hist_seqr::bucket_size           32                      
system.ruby.RMW_Read.Directory.miss_type_mach_latency_hist_seqr::max_bucket          319                      
system.ruby.RMW_Read.Directory.miss_type_mach_latency_hist_seqr::samples            8                      
system.ruby.RMW_Read.Directory.miss_type_mach_latency_hist_seqr::mean   142.375000                      
system.ruby.RMW_Read.Directory.miss_type_mach_latency_hist_seqr::gmean   140.253979                      
system.ruby.RMW_Read.Directory.miss_type_mach_latency_hist_seqr::stdev    27.515904                      
system.ruby.RMW_Read.Directory.miss_type_mach_latency_hist_seqr |           0      0.00%      0.00% |           0      0.00%      0.00% |           0      0.00%      0.00% |           4     50.00%     50.00% |           2     25.00%     75.00% |           2     25.00%    100.00% |           0      0.00%    100.00% |           0      0.00%    100.00% |           0      0.00%    100.00% |           0      0.00%    100.00%
system.ruby.RMW_Read.Directory.miss_type_mach_latency_hist_seqr::total            8                      
system.ruby.Directory_Controller.GETX             502      0.00%      0.00%
system.ruby.Directory_Controller.GETS            3019      0.00%      0.00%
system.ruby.Directory_Controller.Lockdown           61      0.00%      0.00%
system.ruby.Directory_Controller.Unlockdown           61      0.00%      0.00%
system.ruby.Directory_Controller.Memory_Data         3476      0.00%      0.00%
system.ruby.Directory_Controller.O.GETX           457      0.00%      0.00%
system.ruby.Directory_Controller.O.GETS          3019      0.00%      0.00%
system.ruby.Directory_Controller.NO.GETX           45      0.00%      0.00%
system.ruby.Directory_Controller.NO.Lockdown           31      0.00%      0.00%
system.ruby.Directory_Controller.L.Unlockdown           61      0.00%      0.00%
system.ruby.Directory_Controller.L_NO_W.Memory_Data           30      0.00%      0.00%
system.ruby.Directory_Controller.NO_W.Lockdown           30      0.00%      0.00%
system.ruby.Directory_Controller.NO_W.Memory_Data         3446      0.00%      0.00%
system.ruby.L1Cache_Controller.Load      |       67666    100.00%    100.00% |           0      0.00%    100.00%
system.ruby.L1Cache_Controller.Load::total        67666                      
system.ruby.L1Cache_Controller.Ifetch    |       56511    100.00%    100.00% |           0      0.00%    100.00%
system.ruby.L1Cache_Controller.Ifetch::total        56511                      
system.ruby.L1Cache_Controller.Store     |       17462    100.00%    100.00% |           0      0.00%    100.00%
system.ruby.L1Cache_Controller.Store::total        17462                      
system.ruby.L1Cache_Controller.L1_Replacement |        2539    100.00%    100.00% |           0      0.00%    100.00%
system.ruby.L1Cache_Controller.L1_Replacement::total         2539                      
system.ruby.L1Cache_Controller.Data_Shared |         540    100.00%    100.00% |           0      0.00%    100.00%
system.ruby.L1Cache_Controller.Data_Shared::total          540                      
system.ruby.L1Cache_Controller.Data_All_Tokens |        3574    100.00%    100.00% |           0      0.00%    100.00%
system.ruby.L1Cache_Controller.Data_All_Tokens::total         3574                      
system.ruby.L1Cache_Controller.Transient_Local_GETX |           0      0.00%      0.00% |         555    100.00%    100.00%
system.ruby.L1Cache_Controller.Transient_Local_GETX::total          555                      
system.ruby.L1Cache_Controller.Transient_Local_GETS |           0      0.00%      0.00% |        3559    100.00%    100.00%
system.ruby.L1Cache_Controller.Transient_Local_GETS::total         3559                      
system.ruby.L1Cache_Controller.Persistent_GETX |           0      0.00%      0.00% |           7    100.00%    100.00%
system.ruby.L1Cache_Controller.Persistent_GETX::total            7                      
system.ruby.L1Cache_Controller.Persistent_GETS |           0      0.00%      0.00% |          54    100.00%    100.00%
system.ruby.L1Cache_Controller.Persistent_GETS::total           54                      
system.ruby.L1Cache_Controller.Own_Lock_or_Unlock |         122     66.67%     66.67% |          61     33.33%    100.00%
system.ruby.L1Cache_Controller.Own_Lock_or_Unlock::total          183                      
system.ruby.L1Cache_Controller.Request_Timeout |         783    100.00%    100.00% |           0      0.00%    100.00%
system.ruby.L1Cache_Controller.Request_Timeout::total          783                      
system.ruby.L1Cache_Controller.Use_TimeoutNoStarvers |        3573    100.00%    100.00% |           0      0.00%    100.00%
system.ruby.L1Cache_Controller.Use_TimeoutNoStarvers::total         3573                      
system.ruby.L1Cache_Controller.NP.Load   |        2245    100.00%    100.00% |           0      0.00%    100.00%
system.ruby.L1Cache_Controller.NP.Load::total         2245                      
system.ruby.L1Cache_Controller.NP.Ifetch |        1314    100.00%    100.00% |           0      0.00%    100.00%
system.ruby.L1Cache_Controller.NP.Ifetch::total         1314                      
system.ruby.L1Cache_Controller.NP.Store  |         510    100.00%    100.00% |           0      0.00%    100.00%
system.ruby.L1Cache_Controller.NP.Store::total          510                      
system.ruby.L1Cache_Controller.NP.Transient_Local_GETX |           0      0.00%      0.00% |         555    100.00%    100.00%
system.ruby.L1Cache_Controller.NP.Transient_Local_GETX::total          555                      
system.ruby.L1Cache_Controller.NP.Transient_Local_GETS |           0      0.00%      0.00% |        3559    100.00%    100.00%
system.ruby.L1Cache_Controller.NP.Transient_Local_GETS::total         3559                      
system.ruby.L1Cache_Controller.NP.Own_Lock_or_Unlock |           0      0.00%      0.00% |          61    100.00%    100.00%
system.ruby.L1Cache_Controller.NP.Own_Lock_or_Unlock::total           61                      
system.ruby.L1Cache_Controller.S.Load    |        6742    100.00%    100.00% |           0      0.00%    100.00%
system.ruby.L1Cache_Controller.S.Load::total         6742                      
system.ruby.L1Cache_Controller.S.Ifetch  |        2929    100.00%    100.00% |           0      0.00%    100.00%
system.ruby.L1Cache_Controller.S.Ifetch::total         2929                      
system.ruby.L1Cache_Controller.S.Store   |          45    100.00%    100.00% |           0      0.00%    100.00%
system.ruby.L1Cache_Controller.S.Store::total           45                      
system.ruby.L1Cache_Controller.S.L1_Replacement |         316    100.00%    100.00% |           0      0.00%    100.00%
system.ruby.L1Cache_Controller.S.L1_Replacement::total          316                      
system.ruby.L1Cache_Controller.M.Load    |       16412    100.00%    100.00% |           0      0.00%    100.00%
system.ruby.L1Cache_Controller.M.Load::total        16412                      
system.ruby.L1Cache_Controller.M.Ifetch  |       51848    100.00%    100.00% |           0      0.00%    100.00%
system.ruby.L1Cache_Controller.M.Ifetch::total        51848                      
system.ruby.L1Cache_Controller.M.Store   |          43    100.00%    100.00% |           0      0.00%    100.00%
system.ruby.L1Cache_Controller.M.Store::total           43                      
system.ruby.L1Cache_Controller.M.L1_Replacement |        1705    100.00%    100.00% |           0      0.00%    100.00%
system.ruby.L1Cache_Controller.M.L1_Replacement::total         1705                      
system.ruby.L1Cache_Controller.M.Own_Lock_or_Unlock |          54    100.00%    100.00% |           0      0.00%    100.00%
system.ruby.L1Cache_Controller.M.Own_Lock_or_Unlock::total           54                      
system.ruby.L1Cache_Controller.MM.Load   |       31053    100.00%    100.00% |           0      0.00%    100.00%
system.ruby.L1Cache_Controller.MM.Load::total        31053                      
system.ruby.L1Cache_Controller.MM.Store  |       14814    100.00%    100.00% |           0      0.00%    100.00%
system.ruby.L1Cache_Controller.MM.Store::total        14814                      
system.ruby.L1Cache_Controller.MM.L1_Replacement |         518    100.00%    100.00% |           0      0.00%    100.00%
system.ruby.L1Cache_Controller.MM.L1_Replacement::total          518                      
system.ruby.L1Cache_Controller.MM.Own_Lock_or_Unlock |           7    100.00%    100.00% |           0      0.00%    100.00%
system.ruby.L1Cache_Controller.MM.Own_Lock_or_Unlock::total            7                      
system.ruby.L1Cache_Controller.M_W.Load  |       11165    100.00%    100.00% |           0      0.00%    100.00%
system.ruby.L1Cache_Controller.M_W.Load::total        11165                      
system.ruby.L1Cache_Controller.M_W.Ifetch |         420    100.00%    100.00% |           0      0.00%    100.00%
system.ruby.L1Cache_Controller.M_W.Ifetch::total          420                      
system.ruby.L1Cache_Controller.M_W.Store |          12    100.00%    100.00% |           0      0.00%    100.00%
system.ruby.L1Cache_Controller.M_W.Store::total           12                      
system.ruby.L1Cache_Controller.M_W.Own_Lock_or_Unlock |          15    100.00%    100.00% |           0      0.00%    100.00%
system.ruby.L1Cache_Controller.M_W.Own_Lock_or_Unlock::total           15                      
system.ruby.L1Cache_Controller.M_W.Use_TimeoutNoStarvers |        3006    100.00%    100.00% |           0      0.00%    100.00%
system.ruby.L1Cache_Controller.M_W.Use_TimeoutNoStarvers::total         3006                      
system.ruby.L1Cache_Controller.MM_W.Load |          49    100.00%    100.00% |           0      0.00%    100.00%
system.ruby.L1Cache_Controller.MM_W.Load::total           49                      
system.ruby.L1Cache_Controller.MM_W.Store |        2038    100.00%    100.00% |           0      0.00%    100.00%
system.ruby.L1Cache_Controller.MM_W.Store::total         2038                      
system.ruby.L1Cache_Controller.MM_W.Own_Lock_or_Unlock |           1    100.00%    100.00% |           0      0.00%    100.00%
system.ruby.L1Cache_Controller.MM_W.Own_Lock_or_Unlock::total            1                      
system.ruby.L1Cache_Controller.MM_W.Use_TimeoutNoStarvers |         567    100.00%    100.00% |           0      0.00%    100.00%
system.ruby.L1Cache_Controller.MM_W.Use_TimeoutNoStarvers::total          567                      
system.ruby.L1Cache_Controller.IM.Data_All_Tokens |         510    100.00%    100.00% |           0      0.00%    100.00%
system.ruby.L1Cache_Controller.IM.Data_All_Tokens::total          510                      
system.ruby.L1Cache_Controller.IM.Own_Lock_or_Unlock |           6    100.00%    100.00% |           0      0.00%    100.00%
system.ruby.L1Cache_Controller.IM.Own_Lock_or_Unlock::total            6                      
system.ruby.L1Cache_Controller.IM.Request_Timeout |          90    100.00%    100.00% |           0      0.00%    100.00%
system.ruby.L1Cache_Controller.IM.Request_Timeout::total           90                      
system.ruby.L1Cache_Controller.SM.Data_All_Tokens |          45    100.00%    100.00% |           0      0.00%    100.00%
system.ruby.L1Cache_Controller.SM.Data_All_Tokens::total           45                      
system.ruby.L1Cache_Controller.IS.Data_Shared |         540    100.00%    100.00% |           0      0.00%    100.00%
system.ruby.L1Cache_Controller.IS.Data_Shared::total          540                      
system.ruby.L1Cache_Controller.IS.Data_All_Tokens |        3019    100.00%    100.00% |           0      0.00%    100.00%
system.ruby.L1Cache_Controller.IS.Data_All_Tokens::total         3019                      
system.ruby.L1Cache_Controller.IS.Own_Lock_or_Unlock |          39    100.00%    100.00% |           0      0.00%    100.00%
system.ruby.L1Cache_Controller.IS.Own_Lock_or_Unlock::total           39                      
system.ruby.L1Cache_Controller.IS.Request_Timeout |         693    100.00%    100.00% |           0      0.00%    100.00%
system.ruby.L1Cache_Controller.IS.Request_Timeout::total          693                      
system.ruby.L1Cache_Controller.I_L.Persistent_GETX |           0      0.00%      0.00% |           7    100.00%    100.00%
system.ruby.L1Cache_Controller.I_L.Persistent_GETX::total            7                      
system.ruby.L1Cache_Controller.I_L.Persistent_GETS |           0      0.00%      0.00% |          54    100.00%    100.00%
system.ruby.L1Cache_Controller.I_L.Persistent_GETS::total           54                      
system.ruby.L2Cache_Controller.L1_GETS           3559      0.00%      0.00%
system.ruby.L2Cache_Controller.L1_GETX            555      0.00%      0.00%
system.ruby.L2Cache_Controller.Writeback_All_Tokens         2539      0.00%      0.00%
system.ruby.L2Cache_Controller.Persistent_GETX            7      0.00%      0.00%
system.ruby.L2Cache_Controller.Persistent_GETS           54      0.00%      0.00%
system.ruby.L2Cache_Controller.Own_Lock_or_Unlock           61      0.00%      0.00%
system.ruby.L2Cache_Controller.NP.L1_GETS         3019      0.00%      0.00%
system.ruby.L2Cache_Controller.NP.L1_GETX          457      0.00%      0.00%
system.ruby.L2Cache_Controller.NP.Writeback_All_Tokens         2174      0.00%      0.00%
system.ruby.L2Cache_Controller.NP.Own_Lock_or_Unlock           61      0.00%      0.00%
system.ruby.L2Cache_Controller.I.Writeback_All_Tokens           49      0.00%      0.00%
system.ruby.L2Cache_Controller.O.L1_GETX           45      0.00%      0.00%
system.ruby.L2Cache_Controller.O.Writeback_All_Tokens          316      0.00%      0.00%
system.ruby.L2Cache_Controller.M.L1_GETS          540      0.00%      0.00%
system.ruby.L2Cache_Controller.M.L1_GETX           53      0.00%      0.00%
system.ruby.L2Cache_Controller.I_L.Persistent_GETX            7      0.00%      0.00%
system.ruby.L2Cache_Controller.I_L.Persistent_GETS           54      0.00%      0.00%

---------- End Simulation Statistics   ----------
