gem5 Simulator System.  http://gem5.org
gem5 is copyrighted software; use the --copyright option for details.

gem5 compiled Dec 20 2016 02:07:36
gem5 started Dec 20 2016 09:14:16
gem5 executing on lty-Satellite-L800, pid 7236
command line: ./build/X86/gem5.opt configs/tuturial/MD5.py -o ./input --ruby --network=garnet2.0 --num-cpus=1 --num-fpgas=1 --num-dirs=2 --num-l2caches=2 --topology=Mesh_XY --mesh-rows=1
2000eac1f1abd7b72000eac1f1abd7b7
abfad99b47e3d77eabfad99b47e3d77e
1
2
2
Global frequency set at 1000000000000 ticks per second
Beginning simulation!
info: Entering event queue @ 0.  Starting simulation...
info: Increasing stack size by one page.
admin--21232f297a57a5a743894a0e4a801fc3
aeefasdf--d8a48bcebdc865793c03203fbadc7419
kuadsgfilaasdfasdfasdfassg--9631e54c5c3109ad623ae4e3714d3821
ahsdfiuh--5d7d426c4dad36259ee88d857589309b
laiuwrppae8fp--27ae69f7d84880b2bf1ae8009915808b
q89y3rp9hadsnvc;ab--393962c76eaefcb368e525c817cd911a
9aw8ysdnca--e43e7cdc35431e2bf03b683b854124a9
q9838hiasdbfc;f--8a4e0601951ab27ab37eda27430bdca0
oewhuflasjbdcaef--a395e5f94aa03aca6c89fb1eba229e97
9w833hfkajsdbclkadsfasdf--a8718422128870cc7b047a10bcbd2e2f
liaiegclasbdsfasdfasdf--d9958bab2d25426488097972120e1397
iwwohefliasdjb clasdb--cd73b824f5b31533869d1b7acf6f5de1
liwuhfladsbc--1d5357892617b05259d85e89e29a60fd
labaldfbcasdfasdf--24df78e5640a04eb9a5c5328439b5daa
iweuhfalsjdb c--1a667520241557d64b439a73a6d976d4
lajsdbfladbdsclkbadsfadsf--0ace520fafe7860fc7222a145c2ca43f
aeefasdfasdfasdfsafa--56e13798dae815579e180012658947df
kuadsgfilasgasdfasdfadasdf--71f0a8bd9896f16d6ba68e7700a4b953
ahsdfiuhasdfasdfasdf--0187259e840391288939867befc74181
laiuwrppae8fpdfaf--a7f314d7ba97b1d9717f3b8a9731fb13
q89y3rp9hadsnvc;abasdfasdf--5f21167cdce58572af983c94f949c065
9aw8ysdncaasdfasdfadsf--8f51344d3997a7c4aa84665de5a8c60d
q9838hiasdbfc;fasdfassdf--4891b90d27766a4f54a10da6e80a8adc
oewhuflasjbdc--9810e63f319a1aad755637341359abb1
9w833hfkajsdbclk--b91233f561d53336b7a1857a2327d63f
liaiegclasbdadsfasdfads--aec990399bdafaeeee45f7c792c385c9
iwwohefliasdjb clasdb--cd73b824f5b31533869d1b7acf6f5de1
liwuhfladsbc--1d5357892617b05259d85e89e29a60fd
labaldfbcasdfasdfasdfasdf--7b3721fc58feb2abc7ed592db80fd76e
iweuhfalsjdb cfasdfasdf--c59828d0e86c666b654b8f64f1e7d5d3
lajsdbfladbdsclkb--aec3696eb2261c3fb732738156309afb
adminasdfadf--8314efb189d36eb42a0499bb27e82542
aeefasdfadsfasdfasd--becf8f1dcaebc75ff5cafc28e233bff1
kuadsgfilasasdfasdfasdg--d7b863e2df68cc7ffc88b604032f4887
ahsdfiuhassdfasdfasdf--6639751f118ca7d85dd595a1757e0643
laiuwrppaeadsfasdfas8fp--90b274fe83fc1afd681f6d484c9a210a
q89y3rp9hadsnvc;ab--393962c76eaefcb368e525c817cd911a
9aw8ysdncaasdfasdfasdfasdf--e39687b4519a491c52af4443dc7b3c57
q9838hiasdbfc;fasdf--d733233bdfc5749f6c2ca1fb42c4d7a2
oewhuflasjbdc--9810e63f319a1aad755637341359abb1
9w833hfkajsdbclkasdfasdfasdfas--20e6d98f1785bddb1bb2435235dc60d0
liaiegclasbddsafasdfasdfas--1f1d6997392da38dc97eacf862016cb9
iwwohefliasdjb clasdb--cd73b824f5b31533869d1b7acf6f5de1
liwuhfladsbc--1d5357892617b05259d85e89e29a60fd
labaldfbcasdfasddfasdfasdfas--8e8fc336667cb1a8918b50fc4caf29f8
iweuhfalsjdb c--1a667520241557d64b439a73a6d976d4
lajsdbfladbdsclkfasdfasdfasdb--e7f45500ecbfdc72bcc1ff3aa8dc7291
adminasdfadsfasd--c5f97e1c23d950565cedbc187c03f0a4
aeefasdffasdfasdasdfasdfasdf--5ca2a6a6af02eb258e9d5bf39b12b900
kuadsgfilasgasdfasdf--defd4e3c734b0f8fa755e32a079cc362
admin--21232f297a57a5a743894a0e4a801fc3
aeefasdf--d8a48bcebdc865793c03203fbadc7419
kuadsgfilaasdfasdfasdfassg--9631e54c5c3109ad623ae4e3714d3821
ahsdfiuh--5d7d426c4dad36259ee88d857589309b
laiuwrppae8fp--27ae69f7d84880b2bf1ae8009915808b
q89y3rp9hadsnvc;ab--393962c76eaefcb368e525c817cd911a
9aw8ysdnca--e43e7cdc35431e2bf03b683b854124a9
q9838hiasdbfc;f--8a4e0601951ab27ab37eda27430bdca0
oewhuflasjbdcaef--a395e5f94aa03aca6c89fb1eba229e97
9w833hfkajsdbclkadsfasdf--a8718422128870cc7b047a10bcbd2e2f
liaiegclasbdsfasdfasdf--d9958bab2d25426488097972120e1397
iwwohefliasdjb clasdb--cd73b824f5b31533869d1b7acf6f5de1
liwuhfladsbc--1d5357892617b05259d85e89e29a60fd
labaldfbcasdfasdf--24df78e5640a04eb9a5c5328439b5daa
iweuhfalsjdb c--1a667520241557d64b439a73a6d976d4
lajsdbfladbdsclkbadsfadsf--0ace520fafe7860fc7222a145c2ca43f
aeefasdfasdfasdfsafa--56e13798dae815579e180012658947df
kuadsgfilasgasdfasdfadasdf--71f0a8bd9896f16d6ba68e7700a4b953
ahsdfiuhasdfasdfasdf--0187259e840391288939867befc74181
laiuwrppae8fpdfaf--a7f314d7ba97b1d9717f3b8a9731fb13
q89y3rp9hadsnvc;abasdfasdf--5f21167cdce58572af983c94f949c065
9aw8ysdncaasdfasdfadsf--8f51344d3997a7c4aa84665de5a8c60d
q9838hiasdbfc;fasdfassdf--4891b90d27766a4f54a10da6e80a8adc
oewhuflasjbdc--9810e63f319a1aad755637341359abb1
9w833hfkajsdbclk--b91233f561d53336b7a1857a2327d63f
liaiegclasbdadsfasdfads--aec990399bdafaeeee45f7c792c385c9
iwwohefliasdjb clasdb--cd73b824f5b31533869d1b7acf6f5de1
liwuhfladsbc--1d5357892617b05259d85e89e29a60fd
labaldfbcasdfasdfasdfasdf--7b3721fc58feb2abc7ed592db80fd76e
iweuhfalsjdb cfasdfasdf--c59828d0e86c666b654b8f64f1e7d5d3
lajsdbfladbdsclkb--aec3696eb2261c3fb732738156309afb
adminasdfadf--8314efb189d36eb42a0499bb27e82542
aeefasdfadsfasdfasd--becf8f1dcaebc75ff5cafc28e233bff1
kuadsgfilasasdfasdfasdg--d7b863e2df68cc7ffc88b604032f4887
ahsdfiuhassdfasdfasdf--6639751f118ca7d85dd595a1757e0643
laiuwrppaeadsfasdfas8fp--90b274fe83fc1afd681f6d484c9a210a
q89y3rp9hadsnvc;ab--393962c76eaefcb368e525c817cd911a
9aw8ysdncaasdfasdfasdfasdf--e39687b4519a491c52af4443dc7b3c57
q9838hiasdbfc;fasdf--d733233bdfc5749f6c2ca1fb42c4d7a2
oewhuflasjbdc--9810e63f319a1aad755637341359abb1
9w833hfkajsdbclkasdfasdfasdfas--20e6d98f1785bddb1bb2435235dc60d0
liaiegclasbddsafasdfasdfas--1f1d6997392da38dc97eacf862016cb9
iwwohefliasdjb clasdb--cd73b824f5b31533869d1b7acf6f5de1
liwuhfladsbc--1d5357892617b05259d85e89e29a60fd
labaldfbcasdfasddfasdfasdfas--8e8fc336667cb1a8918b50fc4caf29f8
iweuhfalsjdb c--1a667520241557d64b439a73a6d976d4
lajsdbfladbdsclkfasdfasdfasdb--e7f45500ecbfdc72bcc1ff3aa8dc7291
adminasdfadsfasd--c5f97e1c23d950565cedbc187c03f0a4
aeefasdffasdfasdasdfasdfasdf--5ca2a6a6af02eb258e9d5bf39b12b900
kuadsgfilasgasdfasdf--defd4e3c734b0f8fa755e32a079cc362
admin--21232f297a57a5a743894a0e4a801fc3
aeefasdf--d8a48bcebdc865793c03203fbadc7419
kuadsgfilaasdfasdfasdfassg--9631e54c5c3109ad623ae4e3714d3821
ahsdfiuh--5d7d426c4dad36259ee88d857589309b
laiuwrppae8fp--27ae69f7d84880b2bf1ae8009915808b
q89y3rp9hadsnvc;ab--393962c76eaefcb368e525c817cd911a
9aw8ysdnca--e43e7cdc35431e2bf03b683b854124a9
q9838hiasdbfc;f--8a4e0601951ab27ab37eda27430bdca0
oewhuflasjbdcaef--a395e5f94aa03aca6c89fb1eba229e97
9w833hfkajsdbclkadsfasdf--a8718422128870cc7b047a10bcbd2e2f
liaiegclasbdsfasdfasdf--d9958bab2d25426488097972120e1397
iwwohefliasdjb clasdb--cd73b824f5b31533869d1b7acf6f5de1
liwuhfladsbc--1d5357892617b05259d85e89e29a60fd
labaldfbcasdfasdf--24df78e5640a04eb9a5c5328439b5daa
iweuhfalsjdb c--1a667520241557d64b439a73a6d976d4
lajsdbfladbdsclkbadsfadsf--0ace520fafe7860fc7222a145c2ca43f
aeefasdfasdfasdfsafa--56e13798dae815579e180012658947df
kuadsgfilasgasdfasdfadasdf--71f0a8bd9896f16d6ba68e7700a4b953
ahsdfiuhasdfasdfasdf--0187259e840391288939867befc74181
laiuwrppae8fpdfaf--a7f314d7ba97b1d9717f3b8a9731fb13
q89y3rp9hadsnvc;abasdfasdf--5f21167cdce58572af983c94f949c065
9aw8ysdncaasdfasdfadsf--8f51344d3997a7c4aa84665de5a8c60d
q9838hiasdbfc;fasdfassdf--4891b90d27766a4f54a10da6e80a8adc
oewhuflasjbdc--9810e63f319a1aad755637341359abb1
9w833hfkajsdbclk--b91233f561d53336b7a1857a2327d63f
liaiegclasbdadsfasdfads--aec990399bdafaeeee45f7c792c385c9
iwwohefliasdjb clasdb--cd73b824f5b31533869d1b7acf6f5de1
liwuhfladsbc--1d5357892617b05259d85e89e29a60fd
labaldfbcasdfasdfasdfasdf--7b3721fc58feb2abc7ed592db80fd76e
iweuhfalsjdb cfasdfasdf--c59828d0e86c666b654b8f64f1e7d5d3
lajsdbfladbdsclkb--aec3696eb2261c3fb732738156309afb
adminasdfadf--8314efb189d36eb42a0499bb27e82542
aeefasdfadsfasdfasd--becf8f1dcaebc75ff5cafc28e233bff1
kuadsgfilasasdfasdfasdg--d7b863e2df68cc7ffc88b604032f4887
ahsdfiuhassdfasdfasdf--6639751f118ca7d85dd595a1757e0643
laiuwrppaeadsfasdfas8fp--90b274fe83fc1afd681f6d484c9a210a
q89y3rp9hadsnvc;ab--393962c76eaefcb368e525c817cd911a
9aw8ysdncaasdfasdfasdfasdf--e39687b4519a491c52af4443dc7b3c57
q9838hiasdbfc;fasdf--d733233bdfc5749f6c2ca1fb42c4d7a2
oewhuflasjbdc--9810e63f319a1aad755637341359abb1
9w833hfkajsdbclkasdfasdfasdfas--20e6d98f1785bddb1bb2435235dc60d0
liaiegclasbddsafasdfasdfas--1f1d6997392da38dc97eacf862016cb9
iwwohefliasdjb clasdb--cd73b824f5b31533869d1b7acf6f5de1
liwuhfladsbc--1d5357892617b05259d85e89e29a60fd
labaldfbcasdfasddfasdfasdfas--8e8fc336667cb1a8918b50fc4caf29f8
iweuhfalsjdb c--1a667520241557d64b439a73a6d976d4
lajsdbfladbdsclkfasdfasdfasdb--e7f45500ecbfdc72bcc1ff3aa8dc7291
adminasdfadsfasd--c5f97e1c23d950565cedbc187c03f0a4
aeefasdffasdfasdasdfasdfasdf--5ca2a6a6af02eb258e9d5bf39b12b900
kuadsgfilasgasdfasdf--defd4e3c734b0f8fa755e32a079cc362
admin--21232f297a57a5a743894a0e4a801fc3
aeefasdf--d8a48bcebdc865793c03203fbadc7419
kuadsgfilaasdfasdfasdfassg--9631e54c5c3109ad623ae4e3714d3821
ahsdfiuh--5d7d426c4dad36259ee88d857589309b
laiuwrppae8fp--27ae69f7d84880b2bf1ae8009915808b
q89y3rp9hadsnvc;ab--393962c76eaefcb368e525c817cd911a
9aw8ysdnca--e43e7cdc35431e2bf03b683b854124a9
q9838hiasdbfc;f--8a4e0601951ab27ab37eda27430bdca0
oewhuflasjbdcaef--a395e5f94aa03aca6c89fb1eba229e97
9w833hfkajsdbclkadsfasdf--a8718422128870cc7b047a10bcbd2e2f
liaiegclasbdsfasdfasdf--d9958bab2d25426488097972120e1397
iwwohefliasdjb clasdb--cd73b824f5b31533869d1b7acf6f5de1
liwuhfladsbc--1d5357892617b05259d85e89e29a60fd
labaldfbcasdfasdf--24df78e5640a04eb9a5c5328439b5daa
iweuhfalsjdb c--1a667520241557d64b439a73a6d976d4
lajsdbfladbdsclkbadsfadsf--0ace520fafe7860fc7222a145c2ca43f
aeefasdfasdfasdfsafa--56e13798dae815579e180012658947df
kuadsgfilasgasdfasdfadasdf--71f0a8bd9896f16d6ba68e7700a4b953
ahsdfiuhasdfasdfasdf--0187259e840391288939867befc74181
laiuwrppae8fpdfaf--a7f314d7ba97b1d9717f3b8a9731fb13
q89y3rp9hadsnvc;abasdfasdf--5f21167cdce58572af983c94f949c065
9aw8ysdncaasdfasdfadsf--8f51344d3997a7c4aa84665de5a8c60d
q9838hiasdbfc;fasdfassdf--4891b90d27766a4f54a10da6e80a8adc
oewhuflasjbdc--9810e63f319a1aad755637341359abb1
9w833hfkajsdbclk--b91233f561d53336b7a1857a2327d63f
liaiegclasbdadsfasdfads--aec990399bdafaeeee45f7c792c385c9
iwwohefliasdjb clasdb--cd73b824f5b31533869d1b7acf6f5de1
liwuhfladsbc--1d5357892617b05259d85e89e29a60fd
labaldfbcasdfasdfasdfasdf--7b3721fc58feb2abc7ed592db80fd76e
iweuhfalsjdb cfasdfasdf--c59828d0e86c666b654b8f64f1e7d5d3
lajsdbfladbdsclkb--aec3696eb2261c3fb732738156309afb
adminasdfadf--8314efb189d36eb42a0499bb27e82542
aeefasdfadsfasdfasd--becf8f1dcaebc75ff5cafc28e233bff1
kuadsgfilasasdfasdfasdg--d7b863e2df68cc7ffc88b604032f4887
ahsdfiuhassdfasdfasdf--6639751f118ca7d85dd595a1757e0643
laiuwrppaeadsfasdfas8fp--90b274fe83fc1afd681f6d484c9a210a
q89y3rp9hadsnvc;ab--393962c76eaefcb368e525c817cd911a
9aw8ysdncaasdfasdfasdfasdf--e39687b4519a491c52af4443dc7b3c57
q9838hiasdbfc;fasdf--d733233bdfc5749f6c2ca1fb42c4d7a2
oewhuflasjbdc--9810e63f319a1aad755637341359abb1
9w833hfkajsdbclkasdfasdfasdfas--20e6d98f1785bddb1bb2435235dc60d0
liaiegclasbddsafasdfasdfas--1f1d6997392da38dc97eacf862016cb9
iwwohefliasdjb clasdb--cd73b824f5b31533869d1b7acf6f5de1
liwuhfladsbc--1d5357892617b05259d85e89e29a60fd
labaldfbcasdfasddfasdfasdfas--8e8fc336667cb1a8918b50fc4caf29f8
iweuhfalsjdb c--1a667520241557d64b439a73a6d976d4
lajsdbfladbdsclkfasdfasdfasdb--e7f45500ecbfdc72bcc1ff3aa8dc7291
adminasdfadsfasd--c5f97e1c23d950565cedbc187c03f0a4
aeefasdffasdfasdasdfasdfasdf--5ca2a6a6af02eb258e9d5bf39b12b900
kuadsgfilasgasdfasdf--defd4e3c734b0f8fa755e32a079cc362
admin--21232f297a57a5a743894a0e4a801fc3
aeefasdf--d8a48bcebdc865793c03203fbadc7419
kuadsgfilaasdfasdfasdfassg--9631e54c5c3109ad623ae4e3714d3821
ahsdfiuh--5d7d426c4dad36259ee88d857589309b
laiuwrppae8fp--27ae69f7d84880b2bf1ae8009915808b
q89y3rp9hadsnvc;ab--393962c76eaefcb368e525c817cd911a
9aw8ysdnca--e43e7cdc35431e2bf03b683b854124a9
q9838hiasdbfc;f--8a4e0601951ab27ab37eda27430bdca0
oewhuflasjbdcaef--a395e5f94aa03aca6c89fb1eba229e97
9w833hfkajsdbclkadsfasdf--a8718422128870cc7b047a10bcbd2e2f
liaiegclasbdsfasdfasdf--d9958bab2d25426488097972120e1397
iwwohefliasdjb clasdb--cd73b824f5b31533869d1b7acf6f5de1
liwuhfladsbc--1d5357892617b05259d85e89e29a60fd
labaldfbcasdfasdf--24df78e5640a04eb9a5c5328439b5daa
iweuhfalsjdb c--1a667520241557d64b439a73a6d976d4
lajsdbfladbdsclkbadsfadsf--0ace520fafe7860fc7222a145c2ca43f
aeefasdfasdfasdfsafa--56e13798dae815579e180012658947df
kuadsgfilasgasdfasdfadasdf--71f0a8bd9896f16d6ba68e7700a4b953
ahsdfiuhasdfasdfasdf--0187259e840391288939867befc74181
laiuwrppae8fpdfaf--a7f314d7ba97b1d9717f3b8a9731fb13
q89y3rp9hadsnvc;abasdfasdf--5f21167cdce58572af983c94f949c065
9aw8ysdncaasdfasdfadsf--8f51344d3997a7c4aa84665de5a8c60d
q9838hiasdbfc;fasdfassdf--4891b90d27766a4f54a10da6e80a8adc
oewhuflasjbdc--9810e63f319a1aad755637341359abb1
9w833hfkajsdbclk--b91233f561d53336b7a1857a2327d63f
liaiegclasbdadsfasdfads--aec990399bdafaeeee45f7c792c385c9
iwwohefliasdjb clasdb--cd73b824f5b31533869d1b7acf6f5de1
liwuhfladsbc--1d5357892617b05259d85e89e29a60fd
labaldfbcasdfasdfasdfasdf--7b3721fc58feb2abc7ed592db80fd76e
iweuhfalsjdb cfasdfasdf--c59828d0e86c666b654b8f64f1e7d5d3
lajsdbfladbdsclkb--aec3696eb2261c3fb732738156309afb
adminasdfadf--8314efb189d36eb42a0499bb27e82542
aeefasdfadsfasdfasd--becf8f1dcaebc75ff5cafc28e233bff1
kuadsgfilasasdfasdfasdg--d7b863e2df68cc7ffc88b604032f4887
ahsdfiuhassdfasdfasdf--6639751f118ca7d85dd595a1757e0643
laiuwrppaeadsfasdfas8fp--90b274fe83fc1afd681f6d484c9a210a
q89y3rp9hadsnvc;ab--393962c76eaefcb368e525c817cd911a
9aw8ysdncaasdfasdfasdfasdf--e39687b4519a491c52af4443dc7b3c57
q9838hiasdbfc;fasdf--d733233bdfc5749f6c2ca1fb42c4d7a2
oewhuflasjbdc--9810e63f319a1aad755637341359abb1
9w833hfkajsdbclkasdfasdfasdfas--20e6d98f1785bddb1bb2435235dc60d0
liaiegclasbddsafasdfasdfas--1f1d6997392da38dc97eacf862016cb9
iwwohefliasdjb clasdb--cd73b824f5b31533869d1b7acf6f5de1
liwuhfladsbc--1d5357892617b05259d85e89e29a60fd
labaldfbcasdfasddfasdfasdfas--8e8fc336667cb1a8918b50fc4caf29f8
iweuhfalsjdb c--1a667520241557d64b439a73a6d976d4
lajsdbfladbdsclkfasdfasdfasdb--e7f45500ecbfdc72bcc1ff3aa8dc7291
adminasdfadsfasd--c5f97e1c23d950565cedbc187c03f0a4
aeefasdffasdfasdasdfasdfasdf--5ca2a6a6af02eb258e9d5bf39b12b900
kuadsgfilasgasdfasdf--defd4e3c734b0f8fa755e32a079cc362
admin--21232f297a57a5a743894a0e4a801fc3
aeefasdf--d8a48bcebdc865793c03203fbadc7419
kuadsgfilaasdfasdfasdfassg--9631e54c5c3109ad623ae4e3714d3821
ahsdfiuh--5d7d426c4dad36259ee88d857589309b
laiuwrppae8fp--27ae69f7d84880b2bf1ae8009915808b
q89y3rp9hadsnvc;ab--393962c76eaefcb368e525c817cd911a
9aw8ysdnca--e43e7cdc35431e2bf03b683b854124a9
q9838hiasdbfc;f--8a4e0601951ab27ab37eda27430bdca0
oewhuflasjbdcaef--a395e5f94aa03aca6c89fb1eba229e97
9w833hfkajsdbclkadsfasdf--a8718422128870cc7b047a10bcbd2e2f
liaiegclasbdsfasdfasdf--d9958bab2d25426488097972120e1397
iwwohefliasdjb clasdb--cd73b824f5b31533869d1b7acf6f5de1
liwuhfladsbc--1d5357892617b05259d85e89e29a60fd
labaldfbcasdfasdf--24df78e5640a04eb9a5c5328439b5daa
iweuhfalsjdb c--1a667520241557d64b439a73a6d976d4
lajsdbfladbdsclkbadsfadsf--0ace520fafe7860fc7222a145c2ca43f
aeefasdfasdfasdfsafa--56e13798dae815579e180012658947df
kuadsgfilasgasdfasdfadasdf--71f0a8bd9896f16d6ba68e7700a4b953
ahsdfiuhasdfasdfasdf--0187259e840391288939867befc74181
laiuwrppae8fpdfaf--a7f314d7ba97b1d9717f3b8a9731fb13
q89y3rp9hadsnvc;abasdfasdf--5f21167cdce58572af983c94f949c065
9aw8ysdncaasdfasdfadsf--8f51344d3997a7c4aa84665de5a8c60d
q9838hiasdbfc;fasdfassdf--4891b90d27766a4f54a10da6e80a8adc
oewhuflasjbdc--9810e63f319a1aad755637341359abb1
9w833hfkajsdbclk--b91233f561d53336b7a1857a2327d63f
liaiegclasbdadsfasdfads--aec990399bdafaeeee45f7c792c385c9
iwwohefliasdjb clasdb--cd73b824f5b31533869d1b7acf6f5de1
liwuhfladsbc--1d5357892617b05259d85e89e29a60fd
labaldfbcasdfasdfasdfasdf--7b3721fc58feb2abc7ed592db80fd76e
iweuhfalsjdb cfasdfasdf--c59828d0e86c666b654b8f64f1e7d5d3
lajsdbfladbdsclkb--aec3696eb2261c3fb732738156309afb
adminasdfadf--8314efb189d36eb42a0499bb27e82542
aeefasdfadsfasdfasd--becf8f1dcaebc75ff5cafc28e233bff1
kuadsgfilasasdfasdfasdg--d7b863e2df68cc7ffc88b604032f4887
ahsdfiuhassdfasdfasdf--6639751f118ca7d85dd595a1757e0643
laiuwrppaeadsfasdfas8fp--90b274fe83fc1afd681f6d484c9a210a
q89y3rp9hadsnvc;ab--393962c76eaefcb368e525c817cd911a
9aw8ysdncaasdfasdfasdfasdf--e39687b4519a491c52af4443dc7b3c57
q9838hiasdbfc;fasdf--d733233bdfc5749f6c2ca1fb42c4d7a2
oewhuflasjbdc--9810e63f319a1aad755637341359abb1
9w833hfkajsdbclkasdfasdfasdfas--20e6d98f1785bddb1bb2435235dc60d0
liaiegclasbddsafasdfasdfas--1f1d6997392da38dc97eacf862016cb9
iwwohefliasdjb clasdb--cd73b824f5b31533869d1b7acf6f5de1
liwuhfladsbc--1d5357892617b05259d85e89e29a60fd
labaldfbcasdfasddfasdfasdfas--8e8fc336667cb1a8918b50fc4caf29f8
iweuhfalsjdb c--1a667520241557d64b439a73a6d976d4
lajsdbfladbdsclkfasdfasdfasdb--e7f45500ecbfdc72bcc1ff3aa8dc7291
adminasdfadsfasd--c5f97e1c23d950565cedbc187c03f0a4
aeefasdffasdfasdasdfasdfasdf--5ca2a6a6af02eb258e9d5bf39b12b900
kuadsgfilasgasdfasdf--defd4e3c734b0f8fa755e32a079cc362
admin--21232f297a57a5a743894a0e4a801fc3
aeefasdf--d8a48bcebdc865793c03203fbadc7419
kuadsgfilaasdfasdfasdfassg--9631e54c5c3109ad623ae4e3714d3821
ahsdfiuh--5d7d426c4dad36259ee88d857589309b
laiuwrppae8fp--27ae69f7d84880b2bf1ae8009915808b
q89y3rp9hadsnvc;ab--393962c76eaefcb368e525c817cd911a
9aw8ysdnca--e43e7cdc35431e2bf03b683b854124a9
q9838hiasdbfc;f--8a4e0601951ab27ab37eda27430bdca0
oewhuflasjbdcaef--a395e5f94aa03aca6c89fb1eba229e97
9w833hfkajsdbclkadsfasdf--a8718422128870cc7b047a10bcbd2e2f
liaiegclasbdsfasdfasdf--d9958bab2d25426488097972120e1397
iwwohefliasdjb clasdb--cd73b824f5b31533869d1b7acf6f5de1
liwuhfladsbc--1d5357892617b05259d85e89e29a60fd
labaldfbcasdfasdf--24df78e5640a04eb9a5c5328439b5daa
iweuhfalsjdb c--1a667520241557d64b439a73a6d976d4
lajsdbfladbdsclkbadsfadsf--0ace520fafe7860fc7222a145c2ca43f
aeefasdfasdfasdfsafa--56e13798dae815579e180012658947df
kuadsgfilasgasdfasdfadasdf--71f0a8bd9896f16d6ba68e7700a4b953
ahsdfiuhasdfasdfasdf--0187259e840391288939867befc74181
laiuwrppae8fpdfaf--a7f314d7ba97b1d9717f3b8a9731fb13
q89y3rp9hadsnvc;abasdfasdf--5f21167cdce58572af983c94f949c065
9aw8ysdncaasdfasdfadsf--8f51344d3997a7c4aa84665de5a8c60d
q9838hiasdbfc;fasdfassdf--4891b90d27766a4f54a10da6e80a8adc
oewhuflasjbdc--9810e63f319a1aad755637341359abb1
9w833hfkajsdbclk--b91233f561d53336b7a1857a2327d63f
liaiegclasbdadsfasdfads--aec990399bdafaeeee45f7c792c385c9
iwwohefliasdjb clasdb--cd73b824f5b31533869d1b7acf6f5de1
liwuhfladsbc--1d5357892617b05259d85e89e29a60fd
labaldfbcasdfasdfasdfasdf--7b3721fc58feb2abc7ed592db80fd76e
iweuhfalsjdb cfasdfasdf--c59828d0e86c666b654b8f64f1e7d5d3
lajsdbfladbdsclkb--aec3696eb2261c3fb732738156309afb
adminasdfadf--8314efb189d36eb42a0499bb27e82542
aeefasdfadsfasdfasd--becf8f1dcaebc75ff5cafc28e233bff1
kuadsgfilasasdfasdfasdg--d7b863e2df68cc7ffc88b604032f4887
ahsdfiuhassdfasdfasdf--6639751f118ca7d85dd595a1757e0643
laiuwrppaeadsfasdfas8fp--90b274fe83fc1afd681f6d484c9a210a
q89y3rp9hadsnvc;ab--393962c76eaefcb368e525c817cd911a
9aw8ysdncaasdfasdfasdfasdf--e39687b4519a491c52af4443dc7b3c57
q9838hiasdbfc;fasdf--d733233bdfc5749f6c2ca1fb42c4d7a2
oewhuflasjbdc--9810e63f319a1aad755637341359abb1
9w833hfkajsdbclkasdfasdfasdfas--20e6d98f1785bddb1bb2435235dc60d0
liaiegclasbddsafasdfasdfas--1f1d6997392da38dc97eacf862016cb9
iwwohefliasdjb clasdb--cd73b824f5b31533869d1b7acf6f5de1
liwuhfladsbc--1d5357892617b05259d85e89e29a60fd
labaldfbcasdfasddfasdfasdfas--8e8fc336667cb1a8918b50fc4caf29f8
iweuhfalsjdb c--1a667520241557d64b439a73a6d976d4
lajsdbfladbdsclkfasdfasdfasdb--e7f45500ecbfdc72bcc1ff3aa8dc7291
adminasdfadsfasd--c5f97e1c23d950565cedbc187c03f0a4
aeefasdffasdfasdasdfasdfasdf--5ca2a6a6af02eb258e9d5bf39b12b900
kuadsgfilasgasdfasdf--defd4e3c734b0f8fa755e32a079cc362
admin--21232f297a57a5a743894a0e4a801fc3
aeefasdf--d8a48bcebdc865793c03203fbadc7419
kuadsgfilaasdfasdfasdfassg--9631e54c5c3109ad623ae4e3714d3821
ahsdfiuh--5d7d426c4dad36259ee88d857589309b
laiuwrppae8fp--27ae69f7d84880b2bf1ae8009915808b
q89y3rp9hadsnvc;ab--393962c76eaefcb368e525c817cd911a
9aw8ysdnca--e43e7cdc35431e2bf03b683b854124a9
q9838hiasdbfc;f--8a4e0601951ab27ab37eda27430bdca0
oewhuflasjbdcaef--a395e5f94aa03aca6c89fb1eba229e97
9w833hfkajsdbclkadsfasdf--a8718422128870cc7b047a10bcbd2e2f
liaiegclasbdsfasdfasdf--d9958bab2d25426488097972120e1397
iwwohefliasdjb clasdb--cd73b824f5b31533869d1b7acf6f5de1
liwuhfladsbc--1d5357892617b05259d85e89e29a60fd
labaldfbcasdfasdf--24df78e5640a04eb9a5c5328439b5daa
iweuhfalsjdb c--1a667520241557d64b439a73a6d976d4
lajsdbfladbdsclkbadsfadsf--0ace520fafe7860fc7222a145c2ca43f
aeefasdfasdfasdfsafa--56e13798dae815579e180012658947df
kuadsgfilasgasdfasdfadasdf--71f0a8bd9896f16d6ba68e7700a4b953
ahsdfiuhasdfasdfasdf--0187259e840391288939867befc74181
laiuwrppae8fpdfaf--a7f314d7ba97b1d9717f3b8a9731fb13
q89y3rp9hadsnvc;abasdfasdf--5f21167cdce58572af983c94f949c065
9aw8ysdncaasdfasdfadsf--8f51344d3997a7c4aa84665de5a8c60d
q9838hiasdbfc;fasdfassdf--4891b90d27766a4f54a10da6e80a8adc
oewhuflasjbdc--9810e63f319a1aad755637341359abb1
9w833hfkajsdbclk--b91233f561d53336b7a1857a2327d63f
liaiegclasbdadsfasdfads--aec990399bdafaeeee45f7c792c385c9
iwwohefliasdjb clasdb--cd73b824f5b31533869d1b7acf6f5de1
liwuhfladsbc--1d5357892617b05259d85e89e29a60fd
labaldfbcasdfasdfasdfasdf--7b3721fc58feb2abc7ed592db80fd76e
iweuhfalsjdb cfasdfasdf--c59828d0e86c666b654b8f64f1e7d5d3
lajsdbfladbdsclkb--aec3696eb2261c3fb732738156309afb
adminasdfadf--8314efb189d36eb42a0499bb27e82542
aeefasdfadsfasdfasd--becf8f1dcaebc75ff5cafc28e233bff1
kuadsgfilasasdfasdfasdg--d7b863e2df68cc7ffc88b604032f4887
ahsdfiuhassdfasdfasdf--6639751f118ca7d85dd595a1757e0643
laiuwrppaeadsfasdfas8fp--90b274fe83fc1afd681f6d484c9a210a
q89y3rp9hadsnvc;ab--393962c76eaefcb368e525c817cd911a
9aw8ysdncaasdfasdfasdfasdf--e39687b4519a491c52af4443dc7b3c57
q9838hiasdbfc;fasdf--d733233bdfc5749f6c2ca1fb42c4d7a2
oewhuflasjbdc--9810e63f319a1aad755637341359abb1
9w833hfkajsdbclkasdfasdfasdfas--20e6d98f1785bddb1bb2435235dc60d0
liaiegclasbddsafasdfasdfas--1f1d6997392da38dc97eacf862016cb9
iwwohefliasdjb clasdb--cd73b824f5b31533869d1b7acf6f5de1
liwuhfladsbc--1d5357892617b05259d85e89e29a60fd
labaldfbcasdfasddfasdfasdfas--8e8fc336667cb1a8918b50fc4caf29f8
iweuhfalsjdb c--1a667520241557d64b439a73a6d976d4
lajsdbfladbdsclkfasdfasdfasdb--e7f45500ecbfdc72bcc1ff3aa8dc7291
adminasdfadsfasd--c5f97e1c23d950565cedbc187c03f0a4
aeefasdffasdfasdasdfasdfasdf--5ca2a6a6af02eb258e9d5bf39b12b900
kuadsgfilasgasdfasdf--defd4e3c734b0f8fa755e32a079cc362
--d41d8cd98f00b204e9800998ecf8427e
Exiting @ tick 11689084000 because target called exit()
