gem5 Simulator System.  http://gem5.org
gem5 is copyrighted software; use the --copyright option for details.

gem5 compiled Dec 20 2016 02:07:36
gem5 started Dec 20 2016 13:34:35
gem5 executing on lty-Satellite-L800, pid 10612
command line: ./build/X86/gem5.opt configs/tuturial/MD5-fpga.py -o ./input --ruby --network=garnet2.0 --num-cpus=1 --num-fpgas=1 --num-dirs=2 --num-l2caches=2 --topology=Mesh_XY --mesh-rows=1

1
2
2
Global frequency set at 1000000000000 ticks per second
Beginning simulation!
info: Entering event queue @ 0.  Starting simulation...
info: Increasing stack size by one page.
FpgaCPU--activate
00000000000000000000000000000000
admin--21232f297a57a5a743894a0e4a801fc3
aeefasdf--d8a48bcebdc865793c03203fbadc7419
kuadsgfilaasdfasdfasdfassg--9631e54c5c3109ad623ae4e3714d3821
ahsdfiuh--008736397bf60c5b2ba62674a175754d
laiuwrppae8fp--97748a4da2336fabeeba742ce77d3d56
q89y3rp9hadsnvc;ab--d04f227dbe62442e521444dece1f137b
9aw8ysdnca--9002d1ce8b545dd02311a1ae8e002779
q9838hiasdbfc;f--37dff2ff887cc5520752fef5b42f318f
oewhuflasjbdcaef--8ebed0c69df296993681b4c6df5313ad
9w833hfkajsdbclkadsfasdf--43afeb558e9af850674584cdb2d9168c
liaiegclasbdsfasdfasdf--bdcd6d9e9bc05f95974a68ad379d15dd
iwwohefliasdjb clasdb--bba800a272d0adef6d8b21f440b60699
liwuhfladsbc--5b84298365bd29775eceaccd1cba8548
labaldfbcasdfasdf--fa4cde47e1c36084497a8d629b304e5b
iweuhfalsjdb c--38118c7a0d55af25411f5464e9721065
lajsdbfladbdsclkbadsfadsf--15790ddfc07a19046f912c63a5c7c9a6
aeefasdfasdfasdfsafa--bc70e81fdd78b22d53d9144541d0ec85
kuadsgfilasgasdfasdfadasdf--71f0a8bd9896f16d6ba68e7700a4b953
ahsdfiuhasdfasdfasdf--18e096488bff428d37f9a84522a3a941
laiuwrppae8fpdfaf--c53509757722e8eaef6523a5ff4a7208
q89y3rp9hadsnvc;abasdfasdf--5f21167cdce58572af983c94f949c065
9aw8ysdncaasdfasdfadsf--db502d6f1b91f61f9234cdc13d436a84
q9838hiasdbfc;fasdfassdf--2cf0176cb4e4207206f189ad39b512fe
oewhuflasjbdc--3a6b6d6bef2a4e985ccf0f5272590c14
9w833hfkajsdbclk--c64b9cb8d25e4ac282fe3325201c65b3
liaiegclasbdadsfasdfads--d3e8c4074b482400b603ebd2941b5e0c
iwwohefliasdjb clasdb--3284825ed8071d6bb10fa2bf8ec531ee
liwuhfladsbc--57e1e7582a727cc1d16a484f0e92b689
labaldfbcasdfasdfasdfasdf--cc0efc177d2d98ce3fb25fc41dc0894d
iweuhfalsjdb cfasdfasdf--fc673144b67462243e52cd41074bca0d
lajsdbfladbdsclkb--dcae15a454353efcb38c99b146d02bb9
adminasdfadf--82e1b6676da72776796e6321c2406fe0
aeefasdfadsfasdfasd--c3c9ee870b19340d02a00840513a24bc
kuadsgfilasasdfasdfasdg--8a570d61221797458954918d2980a414
ahsdfiuhassdfasdfasdf--8af7115ac37c03720b61b458d5e21818
laiuwrppaeadsfasdfas8fp--a6d495bde5d31f24e613a34335c16452
q89y3rp9hadsnvc;ab--3b2907f88a9a65650408ab9e466c52b4
9aw8ysdncaasdfasdfasdfasdf--e39687b4519a491c52af4443dc7b3c57
q9838hiasdbfc;fasdf--708510b9d9691990ad5faa1e34cc2f69
oewhuflasjbdc--687c8172e7a70a06a9a4c04b8e8f9c49
9w833hfkajsdbclkasdfasdfasdfas--20e6d98f1785bddb1bb2435235dc60d0
liaiegclasbddsafasdfasdfas--9e9df45e742e50d65cd13de19d3a557c
iwwohefliasdjb clasdb--8cd755650aa410a6b2d15917a20c2160
liwuhfladsbc--318d2db7379d0a16528cac11144e124e
labaldfbcasdfasddfasdfasdfas--3805652db8ebb5020825cdc935471f9c
iweuhfalsjdb c--18e80a4a22a49d9ba417186fc2a1dce6
lajsdbfladbdsclkfasdfasdfasdb--43ab791e1f484f0b09e4827a572597d3
adminasdfadsfasd--46362c30e55a09eb9c69d66c27d27aa0
aeefasdffasdfasdasdfasdfasdf--bd6c7ccfeb403bac30269fab1ed05809
kuadsgfilasgasdfasdf--743eebcf6836ff99f2f17215cab9b2b0
admin--32357978b00963c0b769964aedc44c65
aeefasdf--69dcc57f0d4451b2bffc2e8ce8c62086
kuadsgfilaasdfasdfasdfassg--1850a6ec8eb872367e3023ed27262b5c
ahsdfiuh--2a914359238a21552f9f76fcd74a16ea
laiuwrppae8fp--3ae6a8b78803b0577f6c98a96cb423ba
q89y3rp9hadsnvc;ab--9dce4453dfb99cf45e8cebb122fff8e5
9aw8ysdnca--796c74f7e330c99b4512071d20320832
q9838hiasdbfc;f--769b8001cd9da7e81abf7afadfdf9d30
oewhuflasjbdcaef--63189721ef49f90e13eb131c3cf0637e
9w833hfkajsdbclkadsfasdf--4c2a090fd5ae2d2a962cace36c36aaf0
liaiegclasbdsfasdfasdf--89392e545ea4946b9aafd48baf2c0db3
iwwohefliasdjb clasdb--53bc2254f8531c8fb2ef1d2de256bfb5
liwuhfladsbc--de13106de9e533e0f5b7aa6745058720
labaldfbcasdfasdf--985d9a7ed28e15f504dd6790accf8171
iweuhfalsjdb c--6ab4c543ca8615ec2105c84038ba8ca9
lajsdbfladbdsclkbadsfadsf--a08ec99c957d1c59a88d3ed8928341ff
aeefasdfasdfasdfsafa--bc9e9efe36919802979d681a907baab8
kuadsgfilasgasdfasdfadasdf--a21c1d6b4495fd877059d7040d52fb6c
ahsdfiuhasdfasdfasdf--d49b4333337b7dd4a65163c200f1ca4b
laiuwrppae8fpdfaf--0092035deb37c972ab53ce7fc464adcb
q89y3rp9hadsnvc;abasdfasdf--68f609ff848b48264398fc2417c0c582
9aw8ysdncaasdfasdfadsf--191ee949a9303af033708bbe84f369b7
q9838hiasdbfc;fasdfassdf--c22d3cfe110cffe004abd5fcd971f912
oewhuflasjbdc--2ebdff88f8a4fd3a3ab48a3c01e9901e
9w833hfkajsdbclk--36752ee4b5a8032a9a8d4f1165f1102b
liaiegclasbdadsfasdfads--206411cbab59d09a0ba9084f919b813e
iwwohefliasdjb clasdb--0f46deab1632421576766b7300caf4b3
liwuhfladsbc--d50c76c09c1bde583758b3265b25c098
labaldfbcasdfasdfasdfasdf--93549bd25ecaa920c544caece9af7ae8
iweuhfalsjdb cfasdfasdf--31d1d8b456c1b1fdcc1298679e46361f
lajsdbfladbdsclkb--00190fe77eaee3d972f84a4a7cb315a9
adminasdfadf--e4553ce9f6a3ed4b465a1d9e6376fcc4
aeefasdfadsfasdfasd--8df196e42793cb243960238deb23fbfb
kuadsgfilasasdfasdfasdg--f5517ca0616172b8c4113bda36b08834
ahsdfiuhassdfasdfasdf--9f3d89dc980a16ea17b7e366e4633a8e
laiuwrppaeadsfasdfas8fp--cdbb25ea3e888964611463abeb57d12a
q89y3rp9hadsnvc;ab--f49c086339213cec1118ba5f3735090b
9aw8ysdncaasdfasdfasdfasdf--cd598dd2382289dea5621eebf7b4fe0c
q9838hiasdbfc;fasdf--03c1e43df11e2c221563f468fac0cb46
oewhuflasjbdc--a2b3231b29fa8ac3eb866e7c3607b138
9w833hfkajsdbclkasdfasdfasdfas--20e6d98f1785bddb1bb2435235dc60d0
liaiegclasbddsafasdfasdfas--9e9df45e742e50d65cd13de19d3a557c
iwwohefliasdjb clasdb--8cd755650aa410a6b2d15917a20c2160
liwuhfladsbc--318d2db7379d0a16528cac11144e124e
labaldfbcasdfasddfasdfasdfas--3805652db8ebb5020825cdc935471f9c
iweuhfalsjdb c--18e80a4a22a49d9ba417186fc2a1dce6
lajsdbfladbdsclkfasdfasdfasdb--43ab791e1f484f0b09e4827a572597d3
adminasdfadsfasd--46362c30e55a09eb9c69d66c27d27aa0
aeefasdffasdfasdasdfasdfasdf--bd6c7ccfeb403bac30269fab1ed05809
kuadsgfilasgasdfasdf--743eebcf6836ff99f2f17215cab9b2b0
admin--32357978b00963c0b769964aedc44c65
aeefasdf--69dcc57f0d4451b2bffc2e8ce8c62086
kuadsgfilaasdfasdfasdfassg--1850a6ec8eb872367e3023ed27262b5c
ahsdfiuh--2a914359238a21552f9f76fcd74a16ea
laiuwrppae8fp--3ae6a8b78803b0577f6c98a96cb423ba
q89y3rp9hadsnvc;ab--9dce4453dfb99cf45e8cebb122fff8e5
9aw8ysdnca--796c74f7e330c99b4512071d20320832
q9838hiasdbfc;f--769b8001cd9da7e81abf7afadfdf9d30
oewhuflasjbdcaef--63189721ef49f90e13eb131c3cf0637e
9w833hfkajsdbclkadsfasdf--4c2a090fd5ae2d2a962cace36c36aaf0
liaiegclasbdsfasdfasdf--89392e545ea4946b9aafd48baf2c0db3
iwwohefliasdjb clasdb--53bc2254f8531c8fb2ef1d2de256bfb5
liwuhfladsbc--de13106de9e533e0f5b7aa6745058720
labaldfbcasdfasdf--985d9a7ed28e15f504dd6790accf8171
iweuhfalsjdb c--6ab4c543ca8615ec2105c84038ba8ca9
lajsdbfladbdsclkbadsfadsf--a08ec99c957d1c59a88d3ed8928341ff
aeefasdfasdfasdfsafa--bc9e9efe36919802979d681a907baab8
kuadsgfilasgasdfasdfadasdf--a21c1d6b4495fd877059d7040d52fb6c
ahsdfiuhasdfasdfasdf--d49b4333337b7dd4a65163c200f1ca4b
laiuwrppae8fpdfaf--0092035deb37c972ab53ce7fc464adcb
q89y3rp9hadsnvc;abasdfasdf--68f609ff848b48264398fc2417c0c582
9aw8ysdncaasdfasdfadsf--191ee949a9303af033708bbe84f369b7
q9838hiasdbfc;fasdfassdf--c22d3cfe110cffe004abd5fcd971f912
oewhuflasjbdc--2ebdff88f8a4fd3a3ab48a3c01e9901e
9w833hfkajsdbclk--36752ee4b5a8032a9a8d4f1165f1102b
liaiegclasbdadsfasdfads--206411cbab59d09a0ba9084f919b813e
iwwohefliasdjb clasdb--0f46deab1632421576766b7300caf4b3
liwuhfladsbc--d50c76c09c1bde583758b3265b25c098
labaldfbcasdfasdfasdfasdf--93549bd25ecaa920c544caece9af7ae8
iweuhfalsjdb cfasdfasdf--31d1d8b456c1b1fdcc1298679e46361f
lajsdbfladbdsclkb--00190fe77eaee3d972f84a4a7cb315a9
adminasdfadf--e4553ce9f6a3ed4b465a1d9e6376fcc4
aeefasdfadsfasdfasd--8df196e42793cb243960238deb23fbfb
kuadsgfilasasdfasdfasdg--f5517ca0616172b8c4113bda36b08834
ahsdfiuhassdfasdfasdf--9f3d89dc980a16ea17b7e366e4633a8e
laiuwrppaeadsfasdfas8fp--cdbb25ea3e888964611463abeb57d12a
q89y3rp9hadsnvc;ab--f49c086339213cec1118ba5f3735090b
9aw8ysdncaasdfasdfasdfasdf--cd598dd2382289dea5621eebf7b4fe0c
q9838hiasdbfc;fasdf--03c1e43df11e2c221563f468fac0cb46
oewhuflasjbdc--a2b3231b29fa8ac3eb866e7c3607b138
9w833hfkajsdbclkasdfasdfasdfas--20e6d98f1785bddb1bb2435235dc60d0
liaiegclasbddsafasdfasdfas--9e9df45e742e50d65cd13de19d3a557c
iwwohefliasdjb clasdb--8cd755650aa410a6b2d15917a20c2160
liwuhfladsbc--318d2db7379d0a16528cac11144e124e
labaldfbcasdfasddfasdfasdfas--3805652db8ebb5020825cdc935471f9c
iweuhfalsjdb c--18e80a4a22a49d9ba417186fc2a1dce6
lajsdbfladbdsclkfasdfasdfasdb--43ab791e1f484f0b09e4827a572597d3
adminasdfadsfasd--46362c30e55a09eb9c69d66c27d27aa0
aeefasdffasdfasdasdfasdfasdf--bd6c7ccfeb403bac30269fab1ed05809
kuadsgfilasgasdfasdf--743eebcf6836ff99f2f17215cab9b2b0
admin--32357978b00963c0b769964aedc44c65
aeefasdf--69dcc57f0d4451b2bffc2e8ce8c62086
kuadsgfilaasdfasdfasdfassg--1850a6ec8eb872367e3023ed27262b5c
ahsdfiuh--2a914359238a21552f9f76fcd74a16ea
laiuwrppae8fp--3ae6a8b78803b0577f6c98a96cb423ba
q89y3rp9hadsnvc;ab--9dce4453dfb99cf45e8cebb122fff8e5
9aw8ysdnca--796c74f7e330c99b4512071d20320832
q9838hiasdbfc;f--769b8001cd9da7e81abf7afadfdf9d30
oewhuflasjbdcaef--63189721ef49f90e13eb131c3cf0637e
9w833hfkajsdbclkadsfasdf--4c2a090fd5ae2d2a962cace36c36aaf0
liaiegclasbdsfasdfasdf--89392e545ea4946b9aafd48baf2c0db3
iwwohefliasdjb clasdb--53bc2254f8531c8fb2ef1d2de256bfb5
liwuhfladsbc--de13106de9e533e0f5b7aa6745058720
labaldfbcasdfasdf--985d9a7ed28e15f504dd6790accf8171
iweuhfalsjdb c--6ab4c543ca8615ec2105c84038ba8ca9
lajsdbfladbdsclkbadsfadsf--a08ec99c957d1c59a88d3ed8928341ff
aeefasdfasdfasdfsafa--bc9e9efe36919802979d681a907baab8
kuadsgfilasgasdfasdfadasdf--a21c1d6b4495fd877059d7040d52fb6c
ahsdfiuhasdfasdfasdf--d49b4333337b7dd4a65163c200f1ca4b
laiuwrppae8fpdfaf--0092035deb37c972ab53ce7fc464adcb
q89y3rp9hadsnvc;abasdfasdf--68f609ff848b48264398fc2417c0c582
9aw8ysdncaasdfasdfadsf--191ee949a9303af033708bbe84f369b7
q9838hiasdbfc;fasdfassdf--c22d3cfe110cffe004abd5fcd971f912
oewhuflasjbdc--2ebdff88f8a4fd3a3ab48a3c01e9901e
9w833hfkajsdbclk--36752ee4b5a8032a9a8d4f1165f1102b
liaiegclasbdadsfasdfads--206411cbab59d09a0ba9084f919b813e
iwwohefliasdjb clasdb--0f46deab1632421576766b7300caf4b3
liwuhfladsbc--d50c76c09c1bde583758b3265b25c098
labaldfbcasdfasdfasdfasdf--93549bd25ecaa920c544caece9af7ae8
iweuhfalsjdb cfasdfasdf--31d1d8b456c1b1fdcc1298679e46361f
lajsdbfladbdsclkb--00190fe77eaee3d972f84a4a7cb315a9
adminasdfadf--e4553ce9f6a3ed4b465a1d9e6376fcc4
aeefasdfadsfasdfasd--8df196e42793cb243960238deb23fbfb
kuadsgfilasasdfasdfasdg--f5517ca0616172b8c4113bda36b08834
ahsdfiuhassdfasdfasdf--9f3d89dc980a16ea17b7e366e4633a8e
laiuwrppaeadsfasdfas8fp--cdbb25ea3e888964611463abeb57d12a
q89y3rp9hadsnvc;ab--f49c086339213cec1118ba5f3735090b
9aw8ysdncaasdfasdfasdfasdf--cd598dd2382289dea5621eebf7b4fe0c
q9838hiasdbfc;fasdf--03c1e43df11e2c221563f468fac0cb46
oewhuflasjbdc--a2b3231b29fa8ac3eb866e7c3607b138
9w833hfkajsdbclkasdfasdfasdfas--20e6d98f1785bddb1bb2435235dc60d0
liaiegclasbddsafasdfasdfas--9e9df45e742e50d65cd13de19d3a557c
iwwohefliasdjb clasdb--8cd755650aa410a6b2d15917a20c2160
liwuhfladsbc--318d2db7379d0a16528cac11144e124e
labaldfbcasdfasddfasdfasdfas--3805652db8ebb5020825cdc935471f9c
iweuhfalsjdb c--18e80a4a22a49d9ba417186fc2a1dce6
lajsdbfladbdsclkfasdfasdfasdb--43ab791e1f484f0b09e4827a572597d3
adminasdfadsfasd--46362c30e55a09eb9c69d66c27d27aa0
aeefasdffasdfasdasdfasdfasdf--bd6c7ccfeb403bac30269fab1ed05809
kuadsgfilasgasdfasdf--743eebcf6836ff99f2f17215cab9b2b0
admin--32357978b00963c0b769964aedc44c65
aeefasdf--69dcc57f0d4451b2bffc2e8ce8c62086
kuadsgfilaasdfasdfasdfassg--1850a6ec8eb872367e3023ed27262b5c
ahsdfiuh--2a914359238a21552f9f76fcd74a16ea
laiuwrppae8fp--3ae6a8b78803b0577f6c98a96cb423ba
q89y3rp9hadsnvc;ab--9dce4453dfb99cf45e8cebb122fff8e5
9aw8ysdnca--796c74f7e330c99b4512071d20320832
q9838hiasdbfc;f--769b8001cd9da7e81abf7afadfdf9d30
oewhuflasjbdcaef--63189721ef49f90e13eb131c3cf0637e
9w833hfkajsdbclkadsfasdf--4c2a090fd5ae2d2a962cace36c36aaf0
liaiegclasbdsfasdfasdf--89392e545ea4946b9aafd48baf2c0db3
iwwohefliasdjb clasdb--53bc2254f8531c8fb2ef1d2de256bfb5
liwuhfladsbc--de13106de9e533e0f5b7aa6745058720
labaldfbcasdfasdf--985d9a7ed28e15f504dd6790accf8171
iweuhfalsjdb c--6ab4c543ca8615ec2105c84038ba8ca9
lajsdbfladbdsclkbadsfadsf--a08ec99c957d1c59a88d3ed8928341ff
aeefasdfasdfasdfsafa--bc9e9efe36919802979d681a907baab8
kuadsgfilasgasdfasdfadasdf--a21c1d6b4495fd877059d7040d52fb6c
ahsdfiuhasdfasdfasdf--d49b4333337b7dd4a65163c200f1ca4b
laiuwrppae8fpdfaf--0092035deb37c972ab53ce7fc464adcb
q89y3rp9hadsnvc;abasdfasdf--68f609ff848b48264398fc2417c0c582
9aw8ysdncaasdfasdfadsf--191ee949a9303af033708bbe84f369b7
q9838hiasdbfc;fasdfassdf--c22d3cfe110cffe004abd5fcd971f912
oewhuflasjbdc--2ebdff88f8a4fd3a3ab48a3c01e9901e
9w833hfkajsdbclk--36752ee4b5a8032a9a8d4f1165f1102b
liaiegclasbdadsfasdfads--206411cbab59d09a0ba9084f919b813e
iwwohefliasdjb clasdb--0f46deab1632421576766b7300caf4b3
liwuhfladsbc--d50c76c09c1bde583758b3265b25c098
labaldfbcasdfasdfasdfasdf--93549bd25ecaa920c544caece9af7ae8
iweuhfalsjdb cfasdfasdf--31d1d8b456c1b1fdcc1298679e46361f
lajsdbfladbdsclkb--00190fe77eaee3d972f84a4a7cb315a9
adminasdfadf--e4553ce9f6a3ed4b465a1d9e6376fcc4
aeefasdfadsfasdfasd--8df196e42793cb243960238deb23fbfb
kuadsgfilasasdfasdfasdg--f5517ca0616172b8c4113bda36b08834
ahsdfiuhassdfasdfasdf--9f3d89dc980a16ea17b7e366e4633a8e
laiuwrppaeadsfasdfas8fp--cdbb25ea3e888964611463abeb57d12a
q89y3rp9hadsnvc;ab--f49c086339213cec1118ba5f3735090b
9aw8ysdncaasdfasdfasdfasdf--cd598dd2382289dea5621eebf7b4fe0c
q9838hiasdbfc;fasdf--03c1e43df11e2c221563f468fac0cb46
oewhuflasjbdc--a2b3231b29fa8ac3eb866e7c3607b138
9w833hfkajsdbclkasdfasdfasdfas--20e6d98f1785bddb1bb2435235dc60d0
liaiegclasbddsafasdfasdfas--9e9df45e742e50d65cd13de19d3a557c
iwwohefliasdjb clasdb--8cd755650aa410a6b2d15917a20c2160
liwuhfladsbc--318d2db7379d0a16528cac11144e124e
labaldfbcasdfasddfasdfasdfas--3805652db8ebb5020825cdc935471f9c
iweuhfalsjdb c--18e80a4a22a49d9ba417186fc2a1dce6
lajsdbfladbdsclkfasdfasdfasdb--43ab791e1f484f0b09e4827a572597d3
adminasdfadsfasd--46362c30e55a09eb9c69d66c27d27aa0
aeefasdffasdfasdasdfasdfasdf--bd6c7ccfeb403bac30269fab1ed05809
kuadsgfilasgasdfasdf--743eebcf6836ff99f2f17215cab9b2b0
admin--32357978b00963c0b769964aedc44c65
aeefasdf--69dcc57f0d4451b2bffc2e8ce8c62086
kuadsgfilaasdfasdfasdfassg--1850a6ec8eb872367e3023ed27262b5c
ahsdfiuh--2a914359238a21552f9f76fcd74a16ea
laiuwrppae8fp--3ae6a8b78803b0577f6c98a96cb423ba
q89y3rp9hadsnvc;ab--9dce4453dfb99cf45e8cebb122fff8e5
9aw8ysdnca--796c74f7e330c99b4512071d20320832
q9838hiasdbfc;f--769b8001cd9da7e81abf7afadfdf9d30
oewhuflasjbdcaef--63189721ef49f90e13eb131c3cf0637e
9w833hfkajsdbclkadsfasdf--4c2a090fd5ae2d2a962cace36c36aaf0
liaiegclasbdsfasdfasdf--89392e545ea4946b9aafd48baf2c0db3
iwwohefliasdjb clasdb--53bc2254f8531c8fb2ef1d2de256bfb5
liwuhfladsbc--de13106de9e533e0f5b7aa6745058720
labaldfbcasdfasdf--985d9a7ed28e15f504dd6790accf8171
iweuhfalsjdb c--6ab4c543ca8615ec2105c84038ba8ca9
lajsdbfladbdsclkbadsfadsf--a08ec99c957d1c59a88d3ed8928341ff
aeefasdfasdfasdfsafa--bc9e9efe36919802979d681a907baab8
kuadsgfilasgasdfasdfadasdf--a21c1d6b4495fd877059d7040d52fb6c
ahsdfiuhasdfasdfasdf--d49b4333337b7dd4a65163c200f1ca4b
laiuwrppae8fpdfaf--0092035deb37c972ab53ce7fc464adcb
q89y3rp9hadsnvc;abasdfasdf--68f609ff848b48264398fc2417c0c582
9aw8ysdncaasdfasdfadsf--191ee949a9303af033708bbe84f369b7
q9838hiasdbfc;fasdfassdf--c22d3cfe110cffe004abd5fcd971f912
oewhuflasjbdc--2ebdff88f8a4fd3a3ab48a3c01e9901e
9w833hfkajsdbclk--36752ee4b5a8032a9a8d4f1165f1102b
liaiegclasbdadsfasdfads--206411cbab59d09a0ba9084f919b813e
iwwohefliasdjb clasdb--0f46deab1632421576766b7300caf4b3
liwuhfladsbc--d50c76c09c1bde583758b3265b25c098
labaldfbcasdfasdfasdfasdf--93549bd25ecaa920c544caece9af7ae8
iweuhfalsjdb cfasdfasdf--31d1d8b456c1b1fdcc1298679e46361f
lajsdbfladbdsclkb--00190fe77eaee3d972f84a4a7cb315a9
adminasdfadf--e4553ce9f6a3ed4b465a1d9e6376fcc4
aeefasdfadsfasdfasd--8df196e42793cb243960238deb23fbfb
kuadsgfilasasdfasdfasdg--f5517ca0616172b8c4113bda36b08834
ahsdfiuhassdfasdfasdf--9f3d89dc980a16ea17b7e366e4633a8e
laiuwrppaeadsfasdfas8fp--cdbb25ea3e888964611463abeb57d12a
q89y3rp9hadsnvc;ab--f49c086339213cec1118ba5f3735090b
9aw8ysdncaasdfasdfasdfasdf--cd598dd2382289dea5621eebf7b4fe0c
q9838hiasdbfc;fasdf--03c1e43df11e2c221563f468fac0cb46
oewhuflasjbdc--a2b3231b29fa8ac3eb866e7c3607b138
9w833hfkajsdbclkasdfasdfasdfas--20e6d98f1785bddb1bb2435235dc60d0
liaiegclasbddsafasdfasdfas--9e9df45e742e50d65cd13de19d3a557c
iwwohefliasdjb clasdb--8cd755650aa410a6b2d15917a20c2160
liwuhfladsbc--318d2db7379d0a16528cac11144e124e
labaldfbcasdfasddfasdfasdfas--3805652db8ebb5020825cdc935471f9c
iweuhfalsjdb c--18e80a4a22a49d9ba417186fc2a1dce6
lajsdbfladbdsclkfasdfasdfasdb--43ab791e1f484f0b09e4827a572597d3
adminasdfadsfasd--46362c30e55a09eb9c69d66c27d27aa0
aeefasdffasdfasdasdfasdfasdf--bd6c7ccfeb403bac30269fab1ed05809
kuadsgfilasgasdfasdf--743eebcf6836ff99f2f17215cab9b2b0
admin--32357978b00963c0b769964aedc44c65
aeefasdf--69dcc57f0d4451b2bffc2e8ce8c62086
kuadsgfilaasdfasdfasdfassg--1850a6ec8eb872367e3023ed27262b5c
ahsdfiuh--2a914359238a21552f9f76fcd74a16ea
laiuwrppae8fp--3ae6a8b78803b0577f6c98a96cb423ba
q89y3rp9hadsnvc;ab--9dce4453dfb99cf45e8cebb122fff8e5
9aw8ysdnca--796c74f7e330c99b4512071d20320832
q9838hiasdbfc;f--769b8001cd9da7e81abf7afadfdf9d30
oewhuflasjbdcaef--63189721ef49f90e13eb131c3cf0637e
9w833hfkajsdbclkadsfasdf--4c2a090fd5ae2d2a962cace36c36aaf0
liaiegclasbdsfasdfasdf--89392e545ea4946b9aafd48baf2c0db3
iwwohefliasdjb clasdb--53bc2254f8531c8fb2ef1d2de256bfb5
liwuhfladsbc--de13106de9e533e0f5b7aa6745058720
labaldfbcasdfasdf--985d9a7ed28e15f504dd6790accf8171
iweuhfalsjdb c--6ab4c543ca8615ec2105c84038ba8ca9
lajsdbfladbdsclkbadsfadsf--a08ec99c957d1c59a88d3ed8928341ff
aeefasdfasdfasdfsafa--bc9e9efe36919802979d681a907baab8
kuadsgfilasgasdfasdfadasdf--a21c1d6b4495fd877059d7040d52fb6c
ahsdfiuhasdfasdfasdf--d49b4333337b7dd4a65163c200f1ca4b
laiuwrppae8fpdfaf--0092035deb37c972ab53ce7fc464adcb
q89y3rp9hadsnvc;abasdfasdf--68f609ff848b48264398fc2417c0c582
9aw8ysdncaasdfasdfadsf--191ee949a9303af033708bbe84f369b7
q9838hiasdbfc;fasdfassdf--c22d3cfe110cffe004abd5fcd971f912
oewhuflasjbdc--2ebdff88f8a4fd3a3ab48a3c01e9901e
9w833hfkajsdbclk--36752ee4b5a8032a9a8d4f1165f1102b
liaiegclasbdadsfasdfads--206411cbab59d09a0ba9084f919b813e
iwwohefliasdjb clasdb--0f46deab1632421576766b7300caf4b3
liwuhfladsbc--d50c76c09c1bde583758b3265b25c098
labaldfbcasdfasdfasdfasdf--93549bd25ecaa920c544caece9af7ae8
iweuhfalsjdb cfasdfasdf--31d1d8b456c1b1fdcc1298679e46361f
lajsdbfladbdsclkb--00190fe77eaee3d972f84a4a7cb315a9
adminasdfadf--e4553ce9f6a3ed4b465a1d9e6376fcc4
aeefasdfadsfasdfasd--8df196e42793cb243960238deb23fbfb
kuadsgfilasasdfasdfasdg--f5517ca0616172b8c4113bda36b08834
ahsdfiuhassdfasdfasdf--9f3d89dc980a16ea17b7e366e4633a8e
laiuwrppaeadsfasdfas8fp--cdbb25ea3e888964611463abeb57d12a
q89y3rp9hadsnvc;ab--f49c086339213cec1118ba5f3735090b
9aw8ysdncaasdfasdfasdfasdf--cd598dd2382289dea5621eebf7b4fe0c
q9838hiasdbfc;fasdf--03c1e43df11e2c221563f468fac0cb46
oewhuflasjbdc--a2b3231b29fa8ac3eb866e7c3607b138
9w833hfkajsdbclkasdfasdfasdfas--20e6d98f1785bddb1bb2435235dc60d0
liaiegclasbddsafasdfasdfas--9e9df45e742e50d65cd13de19d3a557c
iwwohefliasdjb clasdb--8cd755650aa410a6b2d15917a20c2160
liwuhfladsbc--318d2db7379d0a16528cac11144e124e
labaldfbcasdfasddfasdfasdfas--3805652db8ebb5020825cdc935471f9c
iweuhfalsjdb c--18e80a4a22a49d9ba417186fc2a1dce6
lajsdbfladbdsclkfasdfasdfasdb--43ab791e1f484f0b09e4827a572597d3
adminasdfadsfasd--46362c30e55a09eb9c69d66c27d27aa0
aeefasdffasdfasdasdfasdfasdf--bd6c7ccfeb403bac30269fab1ed05809
kuadsgfilasgasdfasdf--743eebcf6836ff99f2f17215cab9b2b0
admin--32357978b00963c0b769964aedc44c65
aeefasdf--69dcc57f0d4451b2bffc2e8ce8c62086
kuadsgfilaasdfasdfasdfassg--1850a6ec8eb872367e3023ed27262b5c
ahsdfiuh--2a914359238a21552f9f76fcd74a16ea
laiuwrppae8fp--3ae6a8b78803b0577f6c98a96cb423ba
q89y3rp9hadsnvc;ab--9dce4453dfb99cf45e8cebb122fff8e5
9aw8ysdnca--796c74f7e330c99b4512071d20320832
q9838hiasdbfc;f--769b8001cd9da7e81abf7afadfdf9d30
oewhuflasjbdcaef--63189721ef49f90e13eb131c3cf0637e
9w833hfkajsdbclkadsfasdf--4c2a090fd5ae2d2a962cace36c36aaf0
liaiegclasbdsfasdfasdf--89392e545ea4946b9aafd48baf2c0db3
iwwohefliasdjb clasdb--53bc2254f8531c8fb2ef1d2de256bfb5
liwuhfladsbc--de13106de9e533e0f5b7aa6745058720
labaldfbcasdfasdf--985d9a7ed28e15f504dd6790accf8171
iweuhfalsjdb c--6ab4c543ca8615ec2105c84038ba8ca9
lajsdbfladbdsclkbadsfadsf--a08ec99c957d1c59a88d3ed8928341ff
aeefasdfasdfasdfsafa--bc9e9efe36919802979d681a907baab8
kuadsgfilasgasdfasdfadasdf--a21c1d6b4495fd877059d7040d52fb6c
ahsdfiuhasdfasdfasdf--d49b4333337b7dd4a65163c200f1ca4b
laiuwrppae8fpdfaf--0092035deb37c972ab53ce7fc464adcb
q89y3rp9hadsnvc;abasdfasdf--68f609ff848b48264398fc2417c0c582
9aw8ysdncaasdfasdfadsf--191ee949a9303af033708bbe84f369b7
q9838hiasdbfc;fasdfassdf--c22d3cfe110cffe004abd5fcd971f912
oewhuflasjbdc--2ebdff88f8a4fd3a3ab48a3c01e9901e
9w833hfkajsdbclk--36752ee4b5a8032a9a8d4f1165f1102b
liaiegclasbdadsfasdfads--206411cbab59d09a0ba9084f919b813e
iwwohefliasdjb clasdb--0f46deab1632421576766b7300caf4b3
liwuhfladsbc--d50c76c09c1bde583758b3265b25c098
labaldfbcasdfasdfasdfasdf--93549bd25ecaa920c544caece9af7ae8
iweuhfalsjdb cfasdfasdf--31d1d8b456c1b1fdcc1298679e46361f
lajsdbfladbdsclkb--00190fe77eaee3d972f84a4a7cb315a9
adminasdfadf--e4553ce9f6a3ed4b465a1d9e6376fcc4
aeefasdfadsfasdfasd--8df196e42793cb243960238deb23fbfb
kuadsgfilasasdfasdfasdg--f5517ca0616172b8c4113bda36b08834
ahsdfiuhassdfasdfasdf--9f3d89dc980a16ea17b7e366e4633a8e
laiuwrppaeadsfasdfas8fp--cdbb25ea3e888964611463abeb57d12a
q89y3rp9hadsnvc;ab--f49c086339213cec1118ba5f3735090b
9aw8ysdncaasdfasdfasdfasdf--cd598dd2382289dea5621eebf7b4fe0c
q9838hiasdbfc;fasdf--03c1e43df11e2c221563f468fac0cb46
oewhuflasjbdc--a2b3231b29fa8ac3eb866e7c3607b138
9w833hfkajsdbclkasdfasdfasdfas--20e6d98f1785bddb1bb2435235dc60d0
liaiegclasbddsafasdfasdfas--9e9df45e742e50d65cd13de19d3a557c
iwwohefliasdjb clasdb--8cd755650aa410a6b2d15917a20c2160
liwuhfladsbc--318d2db7379d0a16528cac11144e124e
labaldfbcasdfasddfasdfasdfas--3805652db8ebb5020825cdc935471f9c
iweuhfalsjdb c--18e80a4a22a49d9ba417186fc2a1dce6
lajsdbfladbdsclkfasdfasdfasdb--43ab791e1f484f0b09e4827a572597d3
adminasdfadsfasd--46362c30e55a09eb9c69d66c27d27aa0
aeefasdffasdfasdasdfasdfasdf--bd6c7ccfeb403bac30269fab1ed05809
kuadsgfilasgasdfasdf--743eebcf6836ff99f2f17215cab9b2b0
--Memory attached at 7F1E85C04000
Exiting @ tick 8798345000 because target called exit()
ppid = 10612

Memory attached at 7FF48FF2F000
